

        *** GPGPU-Sim Simulator Version 4.0.0  [build gpgpu-sim_git-commit-90ec3399763d7c8512cfe7dc193473086c38ca38_modified_0.0] ***


GPGPU-Sim PTX: simulation mode 0 (can change with PTX_SIM_MODE_FUNC environment variable:
               1=functional simulation only, 0=detailed performance simulator)
GPGPU-Sim PTX: overriding embedded ptx with ptx file (PTX_SIM_USE_PTX_FILE is set)
GPGPU-Sim: Configuration options:

-save_embedded_ptx                      0 # saves ptx files embedded in binary as <n>.ptx
-keep                                   0 # keep intermediate files created by GPGPU-Sim when interfacing with external programs
-gpgpu_ptx_save_converted_ptxplus                    0 # Saved converted ptxplus to a file
-gpgpu_occupancy_sm_number                   20 # The SM number to pass to ptxas when getting register usage for computing GPU occupancy. This parameter is required in the config.
-ptx_opcode_latency_int      4,13,4,5,145,32 # Opcode latencies for integers <ADD,MAX,MUL,MAD,DIV,SHFL>Default 1,1,19,25,145,32
-ptx_opcode_latency_fp          4,13,4,5,39 # Opcode latencies for single precision floating points <ADD,MAX,MUL,MAD,DIV>Default 1,1,1,1,30
-ptx_opcode_latency_dp         8,19,8,8,330 # Opcode latencies for double precision floating points <ADD,MAX,MUL,MAD,DIV>Default 8,8,8,8,335
-ptx_opcode_latency_sfu                    8 # Opcode latencies for SFU instructionsDefault 8
-ptx_opcode_latency_tesnor                   64 # Opcode latencies for Tensor instructionsDefault 64
-ptx_opcode_initiation_int          1,2,2,1,8,4 # Opcode initiation intervals for integers <ADD,MAX,MUL,MAD,DIV,SHFL>Default 1,1,4,4,32,4
-ptx_opcode_initiation_fp            1,2,1,1,4 # Opcode initiation intervals for single precision floating points <ADD,MAX,MUL,MAD,DIV>Default 1,1,1,1,5
-ptx_opcode_initiation_dp         8,16,8,8,130 # Opcode initiation intervals for double precision floating points <ADD,MAX,MUL,MAD,DIV>Default 8,8,8,8,130
-ptx_opcode_initiation_sfu                    8 # Opcode initiation intervals for sfu instructionsDefault 8
-ptx_opcode_initiation_tensor                   64 # Opcode initiation intervals for tensor instructionsDefault 64
-cdp_latency         7200,8000,100,12000,1600 # CDP API latency <cudaStreamCreateWithFlags, cudaGetParameterBufferV2_init_perWarp, cudaGetParameterBufferV2_perKernel, cudaLaunchDeviceV2_init_perWarp, cudaLaunchDevicV2_perKernel>Default 7200,8000,100,12000,1600
-network_mode                           1 # Interconnection network mode
-inter_config_file   config_fermi_islip.icnt # Interconnection network config file
-icnt_in_buffer_limit                   64 # in_buffer_limit
-icnt_out_buffer_limit                   64 # out_buffer_limit
-icnt_subnets                           2 # subnets
-icnt_arbiter_algo                      1 # arbiter_algo
-icnt_verbose                           0 # inct_verbose
-icnt_grant_cycles                      1 # grant_cycles
-gpgpu_ptx_use_cuobjdump                    1 # Use cuobjdump to extract ptx and sass from binaries
-gpgpu_experimental_lib_support                    0 # Try to extract code from cuda libraries [Broken because of unknown cudaGetExportTable]
-checkpoint_option                      0 #  checkpointing flag (0 = no checkpoint)
-checkpoint_kernel                      1 #  checkpointing during execution of which kernel (1- 1st kernel)
-checkpoint_CTA                         0 #  checkpointing after # of CTA (< less than total CTA)
-resume_option                          0 #  resume flag (0 = no resume)
-resume_kernel                          0 #  Resume from which kernel (1= 1st kernel)
-resume_CTA                             0 #  resume from which CTA 
-checkpoint_CTA_t                       0 #  resume from which CTA 
-checkpoint_insn_Y                      0 #  resume from which CTA 
-gpgpu_ptx_convert_to_ptxplus                    0 # Convert SASS (native ISA) to ptxplus and run ptxplus
-gpgpu_ptx_force_max_capability                   20 # Force maximum compute capability
-gpgpu_ptx_inst_debug_to_file                    0 # Dump executed instructions' debug information to file
-gpgpu_ptx_inst_debug_file       inst_debug.txt # Executed instructions' debug output file
-gpgpu_ptx_inst_debug_thread_uid                    1 # Thread UID for executed instructions' debug output
-gpgpu_simd_model                       1 # 1 = post-dominator
-gpgpu_shader_core_pipeline              1536:32 # shader core pipeline config, i.e., {<nthread>:<warpsize>}
-gpgpu_tex_cache:l1  N:4:128:24,L:R:m:N:L,T:128:4,128:2 # per-shader L1 texture cache  (READ-ONLY) config  {<nsets>:<bsize>:<assoc>,<rep>:<wr>:<alloc>:<wr_alloc>,<mshr>:<N>:<merge>,<mq>:<rf>}
-gpgpu_const_cache:l1 N:64:64:2,L:R:f:N:L,S:2:32,4 # per-shader L1 constant memory cache  (READ-ONLY) config  {<nsets>:<bsize>:<assoc>,<rep>:<wr>:<alloc>:<wr_alloc>,<mshr>:<N>:<merge>,<mq>} 
-gpgpu_cache:il1     N:4:128:4,L:R:f:N:L,S:2:32,4 # shader L1 instruction cache config  {<nsets>:<bsize>:<assoc>,<rep>:<wr>:<alloc>:<wr_alloc>,<mshr>:<N>:<merge>,<mq>} 
-gpgpu_cache:dl1     N:32:128:4,L:L:m:N:H,S:64:8,8 # per-shader L1 data cache config  {<nsets>:<bsize>:<assoc>,<rep>:<wr>:<alloc>:<wr_alloc>,<mshr>:<N>:<merge>,<mq> | none}
-gpgpu_l1_banks                         1 # The number of L1 cache banks
-gpgpu_l1_banks_byte_interleaving                   32 # l1 banks byte interleaving granularity
-gpgpu_l1_banks_hashing_function                    0 # l1 banks hashing function
-gpgpu_l1_latency                      35 # L1 Hit Latency
-gpgpu_smem_latency                    26 # smem Latency
-gpgpu_cache:dl1PrefL1                 none # per-shader L1 data cache config  {<nsets>:<bsize>:<assoc>,<rep>:<wr>:<alloc>:<wr_alloc>,<mshr>:<N>:<merge>,<mq> | none}
-gpgpu_cache:dl1PrefShared                 none # per-shader L1 data cache config  {<nsets>:<bsize>:<assoc>,<rep>:<wr>:<alloc>:<wr_alloc>,<mshr>:<N>:<merge>,<mq> | none}
-gpgpu_gmem_skip_L1D                    1 # global memory access skip L1D cache (implements -Xptxas -dlcm=cg, default=no skip)
-gpgpu_perfect_mem                      0 # enable perfect memory mode (no cache miss)
-n_regfile_gating_group                    4 # group of lanes that should be read/written together)
-gpgpu_clock_gated_reg_file                    0 # enable clock gated reg file for power calculations
-gpgpu_clock_gated_lanes                    0 # enable clock gated lanes for power calculations
-gpgpu_shader_registers                32768 # Number of registers per shader core. Limits number of concurrent CTAs. (default 8192)
-gpgpu_registers_per_block                 8192 # Maximum number of registers per CTA. (default 8192)
-gpgpu_ignore_resources_limitation                    0 # gpgpu_ignore_resources_limitation (default 0)
-gpgpu_shader_cta                       8 # Maximum number of concurrent CTAs in shader (default 8)
-gpgpu_num_cta_barriers                   16 # Maximum number of named barriers per CTA (default 16)
-gpgpu_n_clusters                      15 # number of processing clusters
-gpgpu_n_cores_per_cluster                    1 # number of simd cores per cluster
-gpgpu_n_cluster_ejection_buffer_size                   32 # number of packets in ejection buffer
-gpgpu_n_ldst_response_buffer_size                    2 # number of response packets in ld/st unit ejection buffer
-gpgpu_shmem_per_block                49152 # Size of shared memory per thread block or CTA (default 48kB)
-gpgpu_shmem_size                   49152 # Size of shared memory per shader core (default 16kB)
-gpgpu_adaptive_cache_config                    0 # adaptive_cache_config
-gpgpu_shmem_sizeDefault                49152 # Size of shared memory per shader core (default 16kB)
-gpgpu_shmem_size_PrefL1                16384 # Size of shared memory per shader core (default 16kB)
-gpgpu_shmem_size_PrefShared                16384 # Size of shared memory per shader core (default 16kB)
-gpgpu_shmem_num_banks                   32 # Number of banks in the shared memory in each shader core (default 16)
-gpgpu_shmem_limited_broadcast                    0 # Limit shared memory to do one broadcast per cycle (default on)
-gpgpu_shmem_warp_parts                    1 # Number of portions a warp is divided into for shared memory bank conflict check 
-gpgpu_mem_unit_ports                    1 # The number of memory transactions allowed per core cycle
-gpgpu_shmem_warp_parts                    1 # Number of portions a warp is divided into for shared memory bank conflict check 
-gpgpu_warpdistro_shader                   -1 # Specify which shader core to collect the warp size distribution from
-gpgpu_warp_issue_shader                    0 # Specify which shader core to collect the warp issue distribution from
-gpgpu_local_mem_map                    1 # Mapping from local memory space address to simulated GPU physical address space (default = enabled)
-gpgpu_num_reg_banks                   16 # Number of register banks (default = 8)
-gpgpu_reg_bank_use_warp_id                    0 # Use warp ID in mapping registers to banks (default = off)
-gpgpu_sub_core_model                    0 # Sub Core Volta/Pascal model (default = off)
-gpgpu_enable_specialized_operand_collector                    1 # enable_specialized_operand_collector
-gpgpu_operand_collector_num_units_sp                    6 # number of collector units (default = 4)
-gpgpu_operand_collector_num_units_dp                    0 # number of collector units (default = 0)
-gpgpu_operand_collector_num_units_sfu                    8 # number of collector units (default = 4)
-gpgpu_operand_collector_num_units_int                    0 # number of collector units (default = 0)
-gpgpu_operand_collector_num_units_tensor_core                    4 # number of collector units (default = 4)
-gpgpu_operand_collector_num_units_mem                    2 # number of collector units (default = 2)
-gpgpu_operand_collector_num_units_gen                    0 # number of collector units (default = 0)
-gpgpu_operand_collector_num_in_ports_sp                    2 # number of collector unit in ports (default = 1)
-gpgpu_operand_collector_num_in_ports_dp                    0 # number of collector unit in ports (default = 0)
-gpgpu_operand_collector_num_in_ports_sfu                    1 # number of collector unit in ports (default = 1)
-gpgpu_operand_collector_num_in_ports_int                    0 # number of collector unit in ports (default = 0)
-gpgpu_operand_collector_num_in_ports_tensor_core                    1 # number of collector unit in ports (default = 1)
-gpgpu_operand_collector_num_in_ports_mem                    1 # number of collector unit in ports (default = 1)
-gpgpu_operand_collector_num_in_ports_gen                    0 # number of collector unit in ports (default = 0)
-gpgpu_operand_collector_num_out_ports_sp                    2 # number of collector unit in ports (default = 1)
-gpgpu_operand_collector_num_out_ports_dp                    0 # number of collector unit in ports (default = 0)
-gpgpu_operand_collector_num_out_ports_sfu                    1 # number of collector unit in ports (default = 1)
-gpgpu_operand_collector_num_out_ports_int                    0 # number of collector unit in ports (default = 0)
-gpgpu_operand_collector_num_out_ports_tensor_core                    1 # number of collector unit in ports (default = 1)
-gpgpu_operand_collector_num_out_ports_mem                    1 # number of collector unit in ports (default = 1)
-gpgpu_operand_collector_num_out_ports_gen                    0 # number of collector unit in ports (default = 0)
-gpgpu_coalesce_arch                   20 # Coalescing arch (GT200 = 13, Fermi = 20)
-gpgpu_num_sched_per_core                    2 # Number of warp schedulers per core
-gpgpu_max_insn_issue_per_warp                    1 # Max number of instructions that can be issued per warp in one cycle by scheduler (either 1 or 2)
-gpgpu_dual_issue_diff_exec_units                    1 # should dual issue use two different execution unit resources (Default = 1)
-gpgpu_simt_core_sim_order                    1 # Select the simulation order of cores in a cluster (0=Fix, 1=Round-Robin)
-gpgpu_pipeline_widths 2,0,0,1,1,2,0,0,1,1,2 # Pipeline widths ID_OC_SP,ID_OC_DP,ID_OC_INT,ID_OC_SFU,ID_OC_MEM,OC_EX_SP,OC_EX_DP,OC_EX_INT,OC_EX_SFU,OC_EX_MEM,EX_WB,ID_OC_TENSOR_CORE,OC_EX_TENSOR_CORE
-gpgpu_tensor_core_avail                    0 # Tensor Core Available (default=0)
-gpgpu_num_sp_units                     2 # Number of SP units (default=1)
-gpgpu_num_dp_units                     0 # Number of DP units (default=0)
-gpgpu_num_int_units                    0 # Number of INT units (default=0)
-gpgpu_num_sfu_units                    1 # Number of SF units (default=1)
-gpgpu_num_tensor_core_units                    0 # Number of tensor_core units (default=1)
-gpgpu_num_mem_units                    1 # Number if ldst units (default=1) WARNING: not hooked up to anything
-gpgpu_scheduler                      gto # Scheduler configuration: < lrr | gto | two_level_active > If two_level_active:<num_active_warps>:<inner_prioritization>:<outer_prioritization>For complete list of prioritization values see shader.h enum scheduler_prioritization_typeDefault: gto
-gpgpu_concurrent_kernel_sm                    0 # Support concurrent kernels on a SM (default = disabled)
-gpgpu_perfect_inst_const_cache                    0 # perfect inst and const cache mode, so all inst and const hits in the cache(default = disabled)
-gpgpu_inst_fetch_throughput                    1 # the number of fetched intruction per warp each cycle
-gpgpu_reg_file_port_throughput                    1 # the number ports of the register file
-specialized_unit_1         0,4,4,4,4,BRA # specialized unit config {<enabled>,<num_units>:<latency>:<initiation>,<ID_OC_SPEC>:<OC_EX_SPEC>,<NAME>}
-specialized_unit_2         0,4,4,4,4,BRA # specialized unit config {<enabled>,<num_units>:<latency>:<initiation>,<ID_OC_SPEC>:<OC_EX_SPEC>,<NAME>}
-specialized_unit_3         0,4,4,4,4,BRA # specialized unit config {<enabled>,<num_units>:<latency>:<initiation>,<ID_OC_SPEC>:<OC_EX_SPEC>,<NAME>}
-specialized_unit_4         0,4,4,4,4,BRA # specialized unit config {<enabled>,<num_units>:<latency>:<initiation>,<ID_OC_SPEC>:<OC_EX_SPEC>,<NAME>}
-specialized_unit_5         0,4,4,4,4,BRA # specialized unit config {<enabled>,<num_units>:<latency>:<initiation>,<ID_OC_SPEC>:<OC_EX_SPEC>,<NAME>}
-specialized_unit_6         0,4,4,4,4,BRA # specialized unit config {<enabled>,<num_units>:<latency>:<initiation>,<ID_OC_SPEC>:<OC_EX_SPEC>,<NAME>}
-specialized_unit_7         0,4,4,4,4,BRA # specialized unit config {<enabled>,<num_units>:<latency>:<initiation>,<ID_OC_SPEC>:<OC_EX_SPEC>,<NAME>}
-specialized_unit_8         0,4,4,4,4,BRA # specialized unit config {<enabled>,<num_units>:<latency>:<initiation>,<ID_OC_SPEC>:<OC_EX_SPEC>,<NAME>}
-gpgpu_perf_sim_memcpy                    1 # Fill the L2 cache on memcpy
-gpgpu_simple_dram_model                    0 # simple_dram_model with fixed latency and BW
-gpgpu_dram_scheduler                    1 # 0 = fifo, 1 = FR-FCFS (defaul)
-gpgpu_dram_partition_queues          64:64:64:64 # i2$:$2d:d2$:$2i
-l2_ideal                               0 # Use a ideal L2 cache that always hit
-gpgpu_cache:dl2     S:64:128:8,L:B:m:L:L,A:256:4,4:0,32 # unified banked L2 data cache config  {<nsets>:<bsize>:<assoc>,<rep>:<wr>:<alloc>:<wr_alloc>,<mshr>:<N>:<merge>,<mq>}
-gpgpu_cache:dl2_texture_only                    0 # L2 cache used for texture only
-gpgpu_n_mem                            6 # number of memory modules (e.g. memory controllers) in gpu
-gpgpu_n_sub_partition_per_mchannel                    2 # number of memory subpartition in each memory module
-gpgpu_n_mem_per_ctrlr                    2 # number of memory chips per memory controller
-gpgpu_memlatency_stat                   14 # track and display latency statistics 0x2 enables MC, 0x4 enables queue logs
-gpgpu_frfcfs_dram_sched_queue_size                   64 # 0 = unlimited (default); # entries per chip
-gpgpu_dram_return_queue_size                  116 # 0 = unlimited (default); # entries per chip
-gpgpu_dram_buswidth                    4 # default = 4 bytes (8 bytes per cycle at DDR)
-gpgpu_dram_burst_length                    8 # Burst length of each DRAM request (default = 4 data bus cycle)
-dram_data_command_freq_ratio                    4 # Frequency ratio between DRAM data bus and command bus (default = 2 times, i.e. DDR)
-gpgpu_dram_timing_opt nbk=16:CCD=2:RRD=6:RCD=12:RAS=28:RP=12:RC=40: CL=12:WL=4:CDLR=5:WR=12:nbkgrp=4:CCDL=3:RTPL=2 # DRAM timing parameters = {nbk:tCCD:tRRD:tRCD:tRAS:tRP:tRC:CL:WL:tCDLR:tWR:nbkgrp:tCCDL:tRTPL}
-gpgpu_l2_rop_latency                  120 # ROP queue latency (default 85)
-dram_latency                         100 # DRAM latency (default 30)
-dram_dual_bus_interface                    0 # dual_bus_interface (default = 0) 
-dram_bnk_indexing_policy                    0 # dram_bnk_indexing_policy (0 = normal indexing, 1 = Xoring with the higher bits) (Default = 0)
-dram_bnkgrp_indexing_policy                    1 # dram_bnkgrp_indexing_policy (0 = take higher bits, 1 = take lower bits) (Default = 0)
-dram_seperate_write_queue_enable                    0 # Seperate_Write_Queue_Enable
-dram_write_queue_size             32:28:16 # Write_Queue_Size
-dram_elimnate_rw_turnaround                    0 # elimnate_rw_turnaround i.e set tWTR and tRTW = 0
-icnt_flit_size                        40 # icnt_flit_size
-gpgpu_mem_addr_mapping dramid@8;00000000.00000000.00000000.00000000.0000RRRR.RRRRRRRR.BBBCCCCB.CCSSSSSS # mapping memory address to dram model {dramid@<start bit>;<memory address map>}
-gpgpu_mem_addr_test                    0 # run sweep test to check address mapping for aliased address
-gpgpu_mem_address_mask                    1 # 0 = old addressing mask, 1 = new addressing mask, 2 = new add. mask + flipped bank sel and chip sel bits
-gpgpu_memory_partition_indexing                    0 # 0 = no indexing, 1 = bitwise xoring, 2 = IPoly, 3 = custom indexing
-gpuwattch_xml_file  gpuwattch_gtx480.xml # GPUWattch XML file
-power_simulation_enabled                    1 # Turn on power simulator (1=On, 0=Off)
-power_per_cycle_dump                    0 # Dump detailed power output each cycle
-power_trace_enabled                    0 # produce a file for the power trace (1=On, 0=Off)
-power_trace_zlevel                     6 # Compression level of the power trace output log (0=no comp, 9=highest)
-steady_power_levels_enabled                    0 # produce a file for the steady power levels (1=On, 0=Off)
-steady_state_definition                  8:4 # allowed deviation:number of samples
-gpgpu_max_cycle                        0 # terminates gpu simulation early (0 = no limit)
-gpgpu_max_insn                 100000000 # terminates gpu simulation early (0 = no limit)
-gpgpu_max_cta                          0 # terminates gpu simulation early (0 = no limit)
-gpgpu_max_completed_cta                    0 # terminates gpu simulation early (0 = no limit)
-gpgpu_runtime_stat                   500 # display runtime statistics such as dram utilization {<freq>:<flag>}
-liveness_message_freq                    1 # Minimum number of seconds between simulation liveness messages (0 = always print)
-gpgpu_compute_capability_major                    2 # Major compute capability version number
-gpgpu_compute_capability_minor                    0 # Minor compute capability version number
-gpgpu_flush_l1_cache                    1 # Flush L1 cache at the end of each kernel call
-gpgpu_flush_l2_cache                    0 # Flush L2 cache at the end of each kernel call
-gpgpu_deadlock_detect                    1 # Stop the simulation at deadlock (1=on (default), 0=off)
-gpgpu_ptx_instruction_classification                    0 # if enabled will classify ptx instruction types per kernel (Max 255 kernels now)
-gpgpu_ptx_sim_mode                     0 # Select between Performance (default) or Functional simulation (1)
-gpgpu_clock_domains 700.0:700.0:700.0:924.0 # Clock Domain Frequencies in MhZ {<Core Clock>:<ICNT Clock>:<L2 Clock>:<DRAM Clock>}
-gpgpu_max_concurrent_kernel                    8 # maximum kernels that can run concurrently on GPU
-gpgpu_cflog_interval                    0 # Interval between each snapshot in control flow logger
-visualizer_enabled                     0 # Turn on visualizer output (1=On, 0=Off)
-visualizer_outputfile                 NULL # Specifies the output log file for visualizer
-visualizer_zlevel                      6 # Compression level of the visualizer output log (0=no comp, 9=highest)
-gpgpu_stack_size_limit                 1024 # GPU thread stack size
-gpgpu_heap_size_limit              8388608 # GPU malloc heap size 
-gpgpu_runtime_sync_depth_limit                    2 # GPU device runtime synchronize depth
-gpgpu_runtime_pending_launch_count_limit                 2048 # GPU device runtime pending launch count
-trace_enabled                          0 # Turn on traces
-trace_components                    none # comma seperated list of traces to enable. Complete list found in trace_streams.tup. Default none
-trace_sampling_core                    0 # The core which is printed using CORE_DPRINTF. Default 0
-trace_sampling_memory_partition                   -1 # The memory partition which is printed using MEMPART_DPRINTF. Default -1 (i.e. all)
-enable_ptx_file_line_stats                    1 # Turn on PTX source line statistic profiling. (1 = On)
-ptx_line_stats_filename gpgpu_inst_stats.txt # Output file for PTX source line statistics.
-gpgpu_kernel_launch_latency                    0 # Kernel launch latency in cycles. Default: 0
-gpgpu_cdp_enabled                      0 # Turn on CDP
-gpgpu_TB_launch_latency                    0 # thread block launch latency in cycles. Default: 0
DRAM Timing Options:
nbk                                    16 # number of banks
CCD                                     2 # column to column delay
RRD                                     6 # minimal delay between activation of rows in different banks
RCD                                    12 # row to column delay
RAS                                    28 # time needed to activate row
RP                                     12 # time needed to precharge (deactivate) row
RC                                     40 # row cycle time
CDLR                                    5 # switching from write to read (changes tWTR)
WR                                     12 # last data-in to row precharge
CL                                     12 # CAS latency
WL                                      4 # Write latency
nbkgrp                                  4 # number of bank groups
CCDL                                    3 # column to column delay between accesses to different bank groups
RTPL                                    2 # read to precharge delay between accesses to different bank groups
Total number of memory sub partition = 12
addr_dec_mask[CHIP]  = 0000000000000000 	high:64 low:0
addr_dec_mask[BK]    = 000000000000e100 	high:16 low:8
addr_dec_mask[ROW]   = 000000000fff0000 	high:28 low:16
addr_dec_mask[COL]   = 0000000000001eff 	high:13 low:0
addr_dec_mask[BURST] = 000000000000003f 	high:6 low:0
sub_partition_id_mask = 0000000000000100
GPGPU-Sim uArch: clock freqs: 700000000.000000:700000000.000000:700000000.000000:924000000.000000
GPGPU-Sim uArch: clock periods: 0.00000000142857142857:0.00000000142857142857:0.00000000142857142857:0.00000000108225108225
*** Initializing Memory Statistics ***
GPGPU-Sim uArch: interconnect node map (shaderID+MemID to icntID)
GPGPU-Sim uArch: Memory nodes ID start from index: 15
GPGPU-Sim uArch:    0   1   2   3   4
GPGPU-Sim uArch:    5   6   7   8   9
GPGPU-Sim uArch:   10  11  12  13  14
GPGPU-Sim uArch:   15  16  17  18  19
GPGPU-Sim uArch:   20  21  22  23  24
GPGPU-Sim uArch:   25  26
GPGPU-Sim uArch: interconnect node reverse map (icntID to shaderID+MemID)
GPGPU-Sim uArch: Memory nodes start from ID: 15
GPGPU-Sim uArch:    0   1   2   3   4
GPGPU-Sim uArch:    5   6   7   8   9
GPGPU-Sim uArch:   10  11  12  13  14
GPGPU-Sim uArch:   15  16  17  18  19
GPGPU-Sim uArch:   20  21  22  23  24
GPGPU-Sim uArch:   25  26
e7a8026e2cad0e1eadf41911b2f660f8  /code/ISPASS/BFS/ispass-2009-BFS
Extracting PTX file and ptxas options    1: ispass-2009-BFS.1.sm_30.ptx -arch=sm_30
Extracting PTX file and ptxas options    2: ispass-2009-BFS.2.sm_35.ptx -arch=sm_35
Extracting PTX file and ptxas options    3: ispass-2009-BFS.3.sm_50.ptx -arch=sm_50
Extracting PTX file and ptxas options    4: ispass-2009-BFS.4.sm_60.ptx -arch=sm_60
Extracting PTX file and ptxas options    5: ispass-2009-BFS.5.sm_62.ptx -arch=sm_62
GPGPU-Sim uArch: performance model initialization complete.
self exe links to: /code/ISPASS/BFS/ispass-2009-BFS
self exe links to: /code/ISPASS/BFS/ispass-2009-BFS
10.1
GPGPU-Sim PTX: __cudaRegisterFatBinary, fat_cubin_handle = 1, filename=default
self exe links to: /code/ISPASS/BFS/ispass-2009-BFS
Running md5sum using "md5sum /code/ISPASS/BFS/ispass-2009-BFS "
self exe links to: /code/ISPASS/BFS/ispass-2009-BFS
Extracting specific PTX file named ispass-2009-BFS.1.sm_30.ptx 
Extracting specific PTX file named ispass-2009-BFS.2.sm_35.ptx 
Extracting specific PTX file named ispass-2009-BFS.3.sm_50.ptx 
Extracting specific PTX file named ispass-2009-BFS.4.sm_60.ptx 
Extracting specific PTX file named ispass-2009-BFS.5.sm_62.ptx 
GPGPU-Sim PTX: __cudaRegisterFunction _Z6KernelP4NodePiPbS2_S1_S2_i : hostFun 0x0x403910, fat_cubin_handle = 1
GPGPU-Sim PTX: Parsing ispass-2009-BFS.1.sm_30.ptx
GPGPU-Sim PTX: instruction assembly for function '_Z6KernelP4NodePiPbS2_S1_S2_i'...   done.
GPGPU-Sim PTX: finished parsing EMBEDDED .ptx file ispass-2009-BFS.1.sm_30.ptx
GPGPU-Sim PTX: Parsing ispass-2009-BFS.2.sm_35.ptx
GPGPU-Sim PTX: Warning %p0 was declared previous at ispass-2009-BFS.1.sm_30.ptx:25 skipping new declaration
GPGPU-Sim PTX: Warning %p1 was declared previous at ispass-2009-BFS.1.sm_30.ptx:25 skipping new declaration
GPGPU-Sim PTX: Warning %p2 was declared previous at ispass-2009-BFS.1.sm_30.ptx:25 skipping new declaration
GPGPU-Sim PTX: Warning %p3 was declared previous at ispass-2009-BFS.1.sm_30.ptx:25 skipping new declaration
GPGPU-Sim PTX: Warning %p4 was declared previous at ispass-2009-BFS.1.sm_30.ptx:25 skipping new declaration
GPGPU-Sim PTX: Warning %p5 was declared previous at ispass-2009-BFS.1.sm_30.ptx:25 skipping new declaration
GPGPU-Sim PTX: Warning %rs0 was declared previous at ispass-2009-BFS.1.sm_30.ptx:26 skipping new declaration
GPGPU-Sim PTX: Warning %rs1 was declared previous at ispass-2009-BFS.1.sm_30.ptx:26 skipping new declaration
GPGPU-Sim PTX: Warning %rs2 was declared previous at ispass-2009-BFS.1.sm_30.ptx:26 skipping new declaration
GPGPU-Sim PTX: Warning %rs3 was declared previous at ispass-2009-BFS.1.sm_30.ptx:26 skipping new declaration
GPGPU-Sim PTX: Warning %rs4 was declared previous at ispass-2009-BFS.1.sm_30.ptx:26 skipping new declaration
GPGPU-Sim PTX: Warning %rs5 was declared previous at ispass-2009-BFS.1.sm_30.ptx:26 skipping new declaration
GPGPU-Sim PTX: Warning %r0 was declared previous at ispass-2009-BFS.1.sm_30.ptx:27 skipping new declaration
GPGPU-Sim PTX: Warning %r1 was declared previous at ispass-2009-BFS.1.sm_30.ptx:27 skipping new declaration
GPGPU-Sim PTX: Warning %r2 was declared previous at ispass-2009-BFS.1.sm_30.ptx:27 skipping new declaration
GPGPU-Sim PTX: Warning %r3 was declared previous at ispass-2009-BFS.1.sm_30.ptx:27 skipping new declaration
GPGPU-Sim PTX: Warning %r4 was declared previous at ispass-2009-BFS.1.sm_30.ptx:27 skipping new declaration
GPGPU-Sim PTX: Warning %r5 was declared previous at ispass-2009-BFS.1.sm_30.ptx:27 skipping new declaration
GPGPU-Sim PTX: Warning %r6 was declared previous at ispass-2009-BFS.1.sm_30.ptx:27 skipping new declaration
GPGPU-Sim PTX: Warning %r7 was declared previous at ispass-2009-BFS.1.sm_30.ptx:27 skipping new declaration
GPGPU-Sim PTX: Warning %r8 was declared previous at ispass-2009-BFS.1.sm_30.ptx:27 skipping new declaration
GPGPU-Sim PTX: Warning %r9 was declared previous at ispass-2009-BFS.1.sm_30.ptx:27 skipping new declaration
GPGPU-Sim PTX: Warning %r10 was declared previous at ispass-2009-BFS.1.sm_30.ptx:27 skipping new declaration
GPGPU-Sim PTX: Warning %r11 was declared previous at ispass-2009-BFS.1.sm_30.ptx:27 skipping new declaration
GPGPU-Sim PTX: Warning %r12 was declared previous at ispass-2009-BFS.1.sm_30.ptx:27 skipping new declaration
GPGPU-Sim PTX: Warning %r13 was declared previous at ispass-2009-BFS.1.sm_30.ptx:27 skipping new declaration
GPGPU-Sim PTX: Warning %r14 was declared previous at ispass-2009-BFS.1.sm_30.ptx:27 skipping new declaration
GPGPU-Sim PTX: Warning %r15 was declared previous at ispass-2009-BFS.1.sm_30.ptx:27 skipping new declaration
GPGPU-Sim PTX: Warning %r16 was declared previous at ispass-2009-BFS.1.sm_30.ptx:27 skipping new declaration
GPGPU-Sim PTX: Warning %r17 was declared previous at ispass-2009-BFS.1.sm_30.ptx:27 skipping new declaration
GPGPU-Sim PTX: Warning %r18 was declared previous at ispass-2009-BFS.1.sm_30.ptx:27 skipping new declaration
GPGPU-Sim PTX: Warning %r19 was declared previous at ispass-2009-BFS.1.sm_30.ptx:27 skipping new declaration
GPGPU-Sim PTX: Warning %r20 was declared previous at ispass-2009-BFS.1.sm_30.ptx:27 skipping new declaration
GPGPU-Sim PTX: Warning %r21 was declared previous at ispass-2009-BFS.1.sm_30.ptx:27 skipping new declaration
GPGPU-Sim PTX: Warning %r22 was declared previous at ispass-2009-BFS.1.sm_30.ptx:27 skipping new declaration
GPGPU-Sim PTX: Warning %r23 was declared previous at ispass-2009-BFS.1.sm_30.ptx:27 skipping new declaration
GPGPU-Sim PTX: Warning %r24 was declared previous at ispass-2009-BFS.1.sm_30.ptx:27 skipping new declaration
GPGPU-Sim PTX: Warning %rd0 was declared previous at ispass-2009-BFS.1.sm_30.ptx:28 skipping new declaration
GPGPU-Sim PTX: Warning %rd1 was declared previous at ispass-2009-BFS.1.sm_30.ptx:28 skipping new declaration
GPGPU-Sim PTX: Warning %rd2 was declared previous at ispass-2009-BFS.1.sm_30.ptx:28 skipping new declaration
GPGPU-Sim PTX: Warning %rd3 was declared previous at ispass-2009-BFS.1.sm_30.ptx:28 skipping new declaration
GPGPU-Sim PTX: Warning %rd4 was declared previous at ispass-2009-BFS.1.sm_30.ptx:28 skipping new declaration
GPGPU-Sim PTX: Warning %rd5 was declared previous at ispass-2009-BFS.1.sm_30.ptx:28 skipping new declaration
GPGPU-Sim PTX: Warning %rd6 was declared previous at ispass-2009-BFS.1.sm_30.ptx:28 skipping new declaration
GPGPU-Sim PTX: Warning %rd7 was declared previous at ispass-2009-BFS.1.sm_30.ptx:28 skipping new declaration
GPGPU-Sim PTX: Warning %rd8 was declared previous at ispass-2009-BFS.1.sm_30.ptx:28 skipping new declaration
GPGPU-Sim PTX: Warning %rd9 was declared previous at ispass-2009-BFS.1.sm_30.ptx:28 skipping new declaration
GPGPU-Sim PTX: Warning %rd10 was declared previous at ispass-2009-BFS.1.sm_30.ptx:28 skipping new declaration
GPGPU-Sim PTX: Warning %rd11 was declared previous at ispass-2009-BFS.1.sm_30.ptx:28 skipping new declaration
GPGPU-Sim PTX: Warning %rd12 was declared previous at ispass-2009-BFS.1.sm_30.ptx:28 skipping new declaration
GPGPU-Sim PTX: Warning %rd13 was declared previous at ispass-2009-BFS.1.sm_30.ptx:28 skipping new declaration
GPGPU-Sim PTX: Warning %rd14 was declared previous at ispass-2009-BFS.1.sm_30.ptx:28 skipping new declaration
GPGPU-Sim PTX: Warning %rd15 was declared previous at ispass-2009-BFS.1.sm_30.ptx:28 skipping new declaration
GPGPU-Sim PTX: Warning %rd16 was declared previous at ispass-2009-BFS.1.sm_30.ptx:28 skipping new declaration
GPGPU-Sim PTX: Warning %rd17 was declared previous at ispass-2009-BFS.1.sm_30.ptx:28 skipping new declaration
GPGPU-Sim PTX: Warning %rd18 was declared previous at ispass-2009-BFS.1.sm_30.ptx:28 skipping new declaration
GPGPU-Sim PTX: Warning %rd19 was declared previous at ispass-2009-BFS.1.sm_30.ptx:28 skipping new declaration
GPGPU-Sim PTX: Warning %rd20 was declared previous at ispass-2009-BFS.1.sm_30.ptx:28 skipping new declaration
GPGPU-Sim PTX: Warning %rd21 was declared previous at ispass-2009-BFS.1.sm_30.ptx:28 skipping new declaration
GPGPU-Sim PTX: Warning %rd22 was declared previous at ispass-2009-BFS.1.sm_30.ptx:28 skipping new declaration
GPGPU-Sim PTX: Warning %rd23 was declared previous at ispass-2009-BFS.1.sm_30.ptx:28 skipping new declaration
GPGPU-Sim PTX: Warning %rd24 was declared previous at ispass-2009-BFS.1.sm_30.ptx:28 skipping new declaration
GPGPU-Sim PTX: Warning %rd25 was declared previous at ispass-2009-BFS.1.sm_30.ptx:28 skipping new declaration
GPGPU-Sim PTX: Warning %rd26 was declared previous at ispass-2009-BFS.1.sm_30.ptx:28 skipping new declaration
GPGPU-Sim PTX: Warning %rd27 was declared previous at ispass-2009-BFS.1.sm_30.ptx:28 skipping new declaration
GPGPU-Sim PTX: Warning %rd28 was declared previous at ispass-2009-BFS.1.sm_30.ptx:28 skipping new declaration
GPGPU-Sim PTX: Warning %rd29 was declared previous at ispass-2009-BFS.1.sm_30.ptx:28 skipping new declaration
GPGPU-Sim PTX: Warning %rd30 was declared previous at ispass-2009-BFS.1.sm_30.ptx:28 skipping new declaration
GPGPU-Sim PTX: Warning %rd31 was declared previous at ispass-2009-BFS.1.sm_30.ptx:28 skipping new declaration
GPGPU-Sim PTX: Warning %rd32 was declared previous at ispass-2009-BFS.1.sm_30.ptx:28 skipping new declaration
GPGPU-Sim PTX: Warning %rd33 was declared previous at ispass-2009-BFS.1.sm_30.ptx:28 skipping new declaration
GPGPU-Sim PTX: Warning %rd34 was declared previous at ispass-2009-BFS.1.sm_30.ptx:28 skipping new declaration
GPGPU-Sim PTX: instruction assembly for function '_Z6KernelP4NodePiPbS2_S1_S2_i'...   done.
GPGPU-Sim PTX: finished parsing EMBEDDED .ptx file ispass-2009-BFS.2.sm_35.ptx
GPGPU-Sim PTX: Parsing ispass-2009-BFS.3.sm_50.ptx
GPGPU-Sim PTX: Warning %p0 was declared previous at ispass-2009-BFS.1.sm_30.ptx:25 skipping new declaration
GPGPU-Sim PTX: Warning %p1 was declared previous at ispass-2009-BFS.1.sm_30.ptx:25 skipping new declaration
GPGPU-Sim PTX: Warning %p2 was declared previous at ispass-2009-BFS.1.sm_30.ptx:25 skipping new declaration
GPGPU-Sim PTX: Warning %p3 was declared previous at ispass-2009-BFS.1.sm_30.ptx:25 skipping new declaration
GPGPU-Sim PTX: Warning %p4 was declared previous at ispass-2009-BFS.1.sm_30.ptx:25 skipping new declaration
GPGPU-Sim PTX: Warning %p5 was declared previous at ispass-2009-BFS.1.sm_30.ptx:25 skipping new declaration
GPGPU-Sim PTX: Warning %rs0 was declared previous at ispass-2009-BFS.1.sm_30.ptx:26 skipping new declaration
GPGPU-Sim PTX: Warning %rs1 was declared previous at ispass-2009-BFS.1.sm_30.ptx:26 skipping new declaration
GPGPU-Sim PTX: Warning %rs2 was declared previous at ispass-2009-BFS.1.sm_30.ptx:26 skipping new declaration
GPGPU-Sim PTX: Warning %rs3 was declared previous at ispass-2009-BFS.1.sm_30.ptx:26 skipping new declaration
GPGPU-Sim PTX: Warning %rs4 was declared previous at ispass-2009-BFS.1.sm_30.ptx:26 skipping new declaration
GPGPU-Sim PTX: Warning %rs5 was declared previous at ispass-2009-BFS.1.sm_30.ptx:26 skipping new declaration
GPGPU-Sim PTX: Warning %r0 was declared previous at ispass-2009-BFS.1.sm_30.ptx:27 skipping new declaration
GPGPU-Sim PTX: Warning %r1 was declared previous at ispass-2009-BFS.1.sm_30.ptx:27 skipping new declaration
GPGPU-Sim PTX: Warning %r2 was declared previous at ispass-2009-BFS.1.sm_30.ptx:27 skipping new declaration
GPGPU-Sim PTX: Warning %r3 was declared previous at ispass-2009-BFS.1.sm_30.ptx:27 skipping new declaration
GPGPU-Sim PTX: Warning %r4 was declared previous at ispass-2009-BFS.1.sm_30.ptx:27 skipping new declaration
GPGPU-Sim PTX: Warning %r5 was declared previous at ispass-2009-BFS.1.sm_30.ptx:27 skipping new declaration
GPGPU-Sim PTX: Warning %r6 was declared previous at ispass-2009-BFS.1.sm_30.ptx:27 skipping new declaration
GPGPU-Sim PTX: Warning %r7 was declared previous at ispass-2009-BFS.1.sm_30.ptx:27 skipping new declaration
GPGPU-Sim PTX: Warning %r8 was declared previous at ispass-2009-BFS.1.sm_30.ptx:27 skipping new declaration
GPGPU-Sim PTX: Warning %r9 was declared previous at ispass-2009-BFS.1.sm_30.ptx:27 skipping new declaration
GPGPU-Sim PTX: Warning %r10 was declared previous at ispass-2009-BFS.1.sm_30.ptx:27 skipping new declaration
GPGPU-Sim PTX: Warning %r11 was declared previous at ispass-2009-BFS.1.sm_30.ptx:27 skipping new declaration
GPGPU-Sim PTX: Warning %r12 was declared previous at ispass-2009-BFS.1.sm_30.ptx:27 skipping new declaration
GPGPU-Sim PTX: Warning %r13 was declared previous at ispass-2009-BFS.1.sm_30.ptx:27 skipping new declaration
GPGPU-Sim PTX: Warning %r14 was declared previous at ispass-2009-BFS.1.sm_30.ptx:27 skipping new declaration
GPGPU-Sim PTX: Warning %r15 was declared previous at ispass-2009-BFS.1.sm_30.ptx:27 skipping new declaration
GPGPU-Sim PTX: Warning %r16 was declared previous at ispass-2009-BFS.1.sm_30.ptx:27 skipping new declaration
GPGPU-Sim PTX: Warning %r17 was declared previous at ispass-2009-BFS.1.sm_30.ptx:27 skipping new declaration
GPGPU-Sim PTX: Warning %r18 was declared previous at ispass-2009-BFS.1.sm_30.ptx:27 skipping new declaration
GPGPU-Sim PTX: Warning %r19 was declared previous at ispass-2009-BFS.1.sm_30.ptx:27 skipping new declaration
GPGPU-Sim PTX: Warning %r20 was declared previous at ispass-2009-BFS.1.sm_30.ptx:27 skipping new declaration
GPGPU-Sim PTX: Warning %r21 was declared previous at ispass-2009-BFS.1.sm_30.ptx:27 skipping new declaration
GPGPU-Sim PTX: Warning %r22 was declared previous at ispass-2009-BFS.1.sm_30.ptx:27 skipping new declaration
GPGPU-Sim PTX: Warning %r23 was declared previous at ispass-2009-BFS.1.sm_30.ptx:27 skipping new declaration
GPGPU-Sim PTX: Warning %r24 was declared previous at ispass-2009-BFS.1.sm_30.ptx:27 skipping new declaration
GPGPU-Sim PTX: Warning %rd0 was declared previous at ispass-2009-BFS.1.sm_30.ptx:28 skipping new declaration
GPGPU-Sim PTX: Warning %rd1 was declared previous at ispass-2009-BFS.1.sm_30.ptx:28 skipping new declaration
GPGPU-Sim PTX: Warning %rd2 was declared previous at ispass-2009-BFS.1.sm_30.ptx:28 skipping new declaration
GPGPU-Sim PTX: Warning %rd3 was declared previous at ispass-2009-BFS.1.sm_30.ptx:28 skipping new declaration
GPGPU-Sim PTX: Warning %rd4 was declared previous at ispass-2009-BFS.1.sm_30.ptx:28 skipping new declaration
GPGPU-Sim PTX: Warning %rd5 was declared previous at ispass-2009-BFS.1.sm_30.ptx:28 skipping new declaration
GPGPU-Sim PTX: Warning %rd6 was declared previous at ispass-2009-BFS.1.sm_30.ptx:28 skipping new declaration
GPGPU-Sim PTX: Warning %rd7 was declared previous at ispass-2009-BFS.1.sm_30.ptx:28 skipping new declaration
GPGPU-Sim PTX: Warning %rd8 was declared previous at ispass-2009-BFS.1.sm_30.ptx:28 skipping new declaration
GPGPU-Sim PTX: Warning %rd9 was declared previous at ispass-2009-BFS.1.sm_30.ptx:28 skipping new declaration
GPGPU-Sim PTX: Warning %rd10 was declared previous at ispass-2009-BFS.1.sm_30.ptx:28 skipping new declaration
GPGPU-Sim PTX: Warning %rd11 was declared previous at ispass-2009-BFS.1.sm_30.ptx:28 skipping new declaration
GPGPU-Sim PTX: Warning %rd12 was declared previous at ispass-2009-BFS.1.sm_30.ptx:28 skipping new declaration
GPGPU-Sim PTX: Warning %rd13 was declared previous at ispass-2009-BFS.1.sm_30.ptx:28 skipping new declaration
GPGPU-Sim PTX: Warning %rd14 was declared previous at ispass-2009-BFS.1.sm_30.ptx:28 skipping new declaration
GPGPU-Sim PTX: Warning %rd15 was declared previous at ispass-2009-BFS.1.sm_30.ptx:28 skipping new declaration
GPGPU-Sim PTX: Warning %rd16 was declared previous at ispass-2009-BFS.1.sm_30.ptx:28 skipping new declaration
GPGPU-Sim PTX: Warning %rd17 was declared previous at ispass-2009-BFS.1.sm_30.ptx:28 skipping new declaration
GPGPU-Sim PTX: Warning %rd18 was declared previous at ispass-2009-BFS.1.sm_30.ptx:28 skipping new declaration
GPGPU-Sim PTX: Warning %rd19 was declared previous at ispass-2009-BFS.1.sm_30.ptx:28 skipping new declaration
GPGPU-Sim PTX: Warning %rd20 was declared previous at ispass-2009-BFS.1.sm_30.ptx:28 skipping new declaration
GPGPU-Sim PTX: Warning %rd21 was declared previous at ispass-2009-BFS.1.sm_30.ptx:28 skipping new declaration
GPGPU-Sim PTX: Warning %rd22 was declared previous at ispass-2009-BFS.1.sm_30.ptx:28 skipping new declaration
GPGPU-Sim PTX: Warning %rd23 was declared previous at ispass-2009-BFS.1.sm_30.ptx:28 skipping new declaration
GPGPU-Sim PTX: Warning %rd24 was declared previous at ispass-2009-BFS.1.sm_30.ptx:28 skipping new declaration
GPGPU-Sim PTX: Warning %rd25 was declared previous at ispass-2009-BFS.1.sm_30.ptx:28 skipping new declaration
GPGPU-Sim PTX: Warning %rd26 was declared previous at ispass-2009-BFS.1.sm_30.ptx:28 skipping new declaration
GPGPU-Sim PTX: Warning %rd27 was declared previous at ispass-2009-BFS.1.sm_30.ptx:28 skipping new declaration
GPGPU-Sim PTX: Warning %rd28 was declared previous at ispass-2009-BFS.1.sm_30.ptx:28 skipping new declaration
GPGPU-Sim PTX: Warning %rd29 was declared previous at ispass-2009-BFS.1.sm_30.ptx:28 skipping new declaration
GPGPU-Sim PTX: Warning %rd30 was declared previous at ispass-2009-BFS.1.sm_30.ptx:28 skipping new declaration
GPGPU-Sim PTX: Warning %rd31 was declared previous at ispass-2009-BFS.1.sm_30.ptx:28 skipping new declaration
GPGPU-Sim PTX: Warning %rd32 was declared previous at ispass-2009-BFS.1.sm_30.ptx:28 skipping new declaration
GPGPU-Sim PTX: Warning %rd33 was declared previous at ispass-2009-BFS.1.sm_30.ptx:28 skipping new declaration
GPGPU-Sim PTX: Warning %rd34 was declared previous at ispass-2009-BFS.1.sm_30.ptx:28 skipping new declaration
GPGPU-Sim PTX: Warning %rd35 was declared previous at ispass-2009-BFS.2.sm_35.ptx:28 skipping new declaration
GPGPU-Sim PTX: instruction assembly for function '_Z6KernelP4NodePiPbS2_S1_S2_i'...   done.
GPGPU-Sim PTX: finished parsing EMBEDDED .ptx file ispass-2009-BFS.3.sm_50.ptx
GPGPU-Sim PTX: Parsing ispass-2009-BFS.4.sm_60.ptx
GPGPU-Sim PTX: Warning %p0 was declared previous at ispass-2009-BFS.1.sm_30.ptx:25 skipping new declaration
GPGPU-Sim PTX: Warning %p1 was declared previous at ispass-2009-BFS.1.sm_30.ptx:25 skipping new declaration
GPGPU-Sim PTX: Warning %p2 was declared previous at ispass-2009-BFS.1.sm_30.ptx:25 skipping new declaration
GPGPU-Sim PTX: Warning %p3 was declared previous at ispass-2009-BFS.1.sm_30.ptx:25 skipping new declaration
GPGPU-Sim PTX: Warning %p4 was declared previous at ispass-2009-BFS.1.sm_30.ptx:25 skipping new declaration
GPGPU-Sim PTX: Warning %p5 was declared previous at ispass-2009-BFS.1.sm_30.ptx:25 skipping new declaration
GPGPU-Sim PTX: Warning %rs0 was declared previous at ispass-2009-BFS.1.sm_30.ptx:26 skipping new declaration
GPGPU-Sim PTX: Warning %rs1 was declared previous at ispass-2009-BFS.1.sm_30.ptx:26 skipping new declaration
GPGPU-Sim PTX: Warning %rs2 was declared previous at ispass-2009-BFS.1.sm_30.ptx:26 skipping new declaration
GPGPU-Sim PTX: Warning %rs3 was declared previous at ispass-2009-BFS.1.sm_30.ptx:26 skipping new declaration
GPGPU-Sim PTX: Warning %rs4 was declared previous at ispass-2009-BFS.1.sm_30.ptx:26 skipping new declaration
GPGPU-Sim PTX: Warning %rs5 was declared previous at ispass-2009-BFS.1.sm_30.ptx:26 skipping new declaration
GPGPU-Sim PTX: Warning %r0 was declared previous at ispass-2009-BFS.1.sm_30.ptx:27 skipping new declaration
GPGPU-Sim PTX: Warning %r1 was declared previous at ispass-2009-BFS.1.sm_30.ptx:27 skipping new declaration
GPGPU-Sim PTX: Warning %r2 was declared previous at ispass-2009-BFS.1.sm_30.ptx:27 skipping new declaration
GPGPU-Sim PTX: Warning %r3 was declared previous at ispass-2009-BFS.1.sm_30.ptx:27 skipping new declaration
GPGPU-Sim PTX: Warning %r4 was declared previous at ispass-2009-BFS.1.sm_30.ptx:27 skipping new declaration
GPGPU-Sim PTX: Warning %r5 was declared previous at ispass-2009-BFS.1.sm_30.ptx:27 skipping new declaration
GPGPU-Sim PTX: Warning %r6 was declared previous at ispass-2009-BFS.1.sm_30.ptx:27 skipping new declaration
GPGPU-Sim PTX: Warning %r7 was declared previous at ispass-2009-BFS.1.sm_30.ptx:27 skipping new declaration
GPGPU-Sim PTX: Warning %r8 was declared previous at ispass-2009-BFS.1.sm_30.ptx:27 skipping new declaration
GPGPU-Sim PTX: Warning %r9 was declared previous at ispass-2009-BFS.1.sm_30.ptx:27 skipping new declaration
GPGPU-Sim PTX: Warning %r10 was declared previous at ispass-2009-BFS.1.sm_30.ptx:27 skipping new declaration
GPGPU-Sim PTX: Warning %r11 was declared previous at ispass-2009-BFS.1.sm_30.ptx:27 skipping new declaration
GPGPU-Sim PTX: Warning %r12 was declared previous at ispass-2009-BFS.1.sm_30.ptx:27 skipping new declaration
GPGPU-Sim PTX: Warning %r13 was declared previous at ispass-2009-BFS.1.sm_30.ptx:27 skipping new declaration
GPGPU-Sim PTX: Warning %r14 was declared previous at ispass-2009-BFS.1.sm_30.ptx:27 skipping new declaration
GPGPU-Sim PTX: Warning %r15 was declared previous at ispass-2009-BFS.1.sm_30.ptx:27 skipping new declaration
GPGPU-Sim PTX: Warning %r16 was declared previous at ispass-2009-BFS.1.sm_30.ptx:27 skipping new declaration
GPGPU-Sim PTX: Warning %r17 was declared previous at ispass-2009-BFS.1.sm_30.ptx:27 skipping new declaration
GPGPU-Sim PTX: Warning %r18 was declared previous at ispass-2009-BFS.1.sm_30.ptx:27 skipping new declaration
GPGPU-Sim PTX: Warning %r19 was declared previous at ispass-2009-BFS.1.sm_30.ptx:27 skipping new declaration
GPGPU-Sim PTX: Warning %r20 was declared previous at ispass-2009-BFS.1.sm_30.ptx:27 skipping new declaration
GPGPU-Sim PTX: Warning %r21 was declared previous at ispass-2009-BFS.1.sm_30.ptx:27 skipping new declaration
GPGPU-Sim PTX: Warning %r22 was declared previous at ispass-2009-BFS.1.sm_30.ptx:27 skipping new declaration
GPGPU-Sim PTX: Warning %r23 was declared previous at ispass-2009-BFS.1.sm_30.ptx:27 skipping new declaration
GPGPU-Sim PTX: Warning %r24 was declared previous at ispass-2009-BFS.1.sm_30.ptx:27 skipping new declaration
GPGPU-Sim PTX: Warning %rd0 was declared previous at ispass-2009-BFS.1.sm_30.ptx:28 skipping new declaration
GPGPU-Sim PTX: Warning %rd1 was declared previous at ispass-2009-BFS.1.sm_30.ptx:28 skipping new declaration
GPGPU-Sim PTX: Warning %rd2 was declared previous at ispass-2009-BFS.1.sm_30.ptx:28 skipping new declaration
GPGPU-Sim PTX: Warning %rd3 was declared previous at ispass-2009-BFS.1.sm_30.ptx:28 skipping new declaration
GPGPU-Sim PTX: Warning %rd4 was declared previous at ispass-2009-BFS.1.sm_30.ptx:28 skipping new declaration
GPGPU-Sim PTX: Warning %rd5 was declared previous at ispass-2009-BFS.1.sm_30.ptx:28 skipping new declaration
GPGPU-Sim PTX: Warning %rd6 was declared previous at ispass-2009-BFS.1.sm_30.ptx:28 skipping new declaration
GPGPU-Sim PTX: Warning %rd7 was declared previous at ispass-2009-BFS.1.sm_30.ptx:28 skipping new declaration
GPGPU-Sim PTX: Warning %rd8 was declared previous at ispass-2009-BFS.1.sm_30.ptx:28 skipping new declaration
GPGPU-Sim PTX: Warning %rd9 was declared previous at ispass-2009-BFS.1.sm_30.ptx:28 skipping new declaration
GPGPU-Sim PTX: Warning %rd10 was declared previous at ispass-2009-BFS.1.sm_30.ptx:28 skipping new declaration
GPGPU-Sim PTX: Warning %rd11 was declared previous at ispass-2009-BFS.1.sm_30.ptx:28 skipping new declaration
GPGPU-Sim PTX: Warning %rd12 was declared previous at ispass-2009-BFS.1.sm_30.ptx:28 skipping new declaration
GPGPU-Sim PTX: Warning %rd13 was declared previous at ispass-2009-BFS.1.sm_30.ptx:28 skipping new declaration
GPGPU-Sim PTX: Warning %rd14 was declared previous at ispass-2009-BFS.1.sm_30.ptx:28 skipping new declaration
GPGPU-Sim PTX: Warning %rd15 was declared previous at ispass-2009-BFS.1.sm_30.ptx:28 skipping new declaration
GPGPU-Sim PTX: Warning %rd16 was declared previous at ispass-2009-BFS.1.sm_30.ptx:28 skipping new declaration
GPGPU-Sim PTX: Warning %rd17 was declared previous at ispass-2009-BFS.1.sm_30.ptx:28 skipping new declaration
GPGPU-Sim PTX: Warning %rd18 was declared previous at ispass-2009-BFS.1.sm_30.ptx:28 skipping new declaration
GPGPU-Sim PTX: Warning %rd19 was declared previous at ispass-2009-BFS.1.sm_30.ptx:28 skipping new declaration
GPGPU-Sim PTX: Warning %rd20 was declared previous at ispass-2009-BFS.1.sm_30.ptx:28 skipping new declaration
GPGPU-Sim PTX: Warning %rd21 was declared previous at ispass-2009-BFS.1.sm_30.ptx:28 skipping new declaration
GPGPU-Sim PTX: Warning %rd22 was declared previous at ispass-2009-BFS.1.sm_30.ptx:28 skipping new declaration
GPGPU-Sim PTX: Warning %rd23 was declared previous at ispass-2009-BFS.1.sm_30.ptx:28 skipping new declaration
GPGPU-Sim PTX: Warning %rd24 was declared previous at ispass-2009-BFS.1.sm_30.ptx:28 skipping new declaration
GPGPU-Sim PTX: Warning %rd25 was declared previous at ispass-2009-BFS.1.sm_30.ptx:28 skipping new declaration
GPGPU-Sim PTX: Warning %rd26 was declared previous at ispass-2009-BFS.1.sm_30.ptx:28 skipping new declaration
GPGPU-Sim PTX: Warning %rd27 was declared previous at ispass-2009-BFS.1.sm_30.ptx:28 skipping new declaration
GPGPU-Sim PTX: Warning %rd28 was declared previous at ispass-2009-BFS.1.sm_30.ptx:28 skipping new declaration
GPGPU-Sim PTX: Warning %rd29 was declared previous at ispass-2009-BFS.1.sm_30.ptx:28 skipping new declaration
GPGPU-Sim PTX: Warning %rd30 was declared previous at ispass-2009-BFS.1.sm_30.ptx:28 skipping new declaration
GPGPU-Sim PTX: Warning %rd31 was declared previous at ispass-2009-BFS.1.sm_30.ptx:28 skipping new declaration
GPGPU-Sim PTX: Warning %rd32 was declared previous at ispass-2009-BFS.1.sm_30.ptx:28 skipping new declaration
GPGPU-Sim PTX: Warning %rd33 was declared previous at ispass-2009-BFS.1.sm_30.ptx:28 skipping new declaration
GPGPU-Sim PTX: Warning %rd34 was declared previous at ispass-2009-BFS.1.sm_30.ptx:28 skipping new declaration
GPGPU-Sim PTX: Warning %rd35 was declared previous at ispass-2009-BFS.2.sm_35.ptx:28 skipping new declaration
GPGPU-Sim PTX: instruction assembly for function '_Z6KernelP4NodePiPbS2_S1_S2_i'...   done.
GPGPU-Sim PTX: finished parsing EMBEDDED .ptx file ispass-2009-BFS.4.sm_60.ptx
GPGPU-Sim PTX: Parsing ispass-2009-BFS.5.sm_62.ptx
GPGPU-Sim PTX: Warning %p0 was declared previous at ispass-2009-BFS.1.sm_30.ptx:25 skipping new declaration
GPGPU-Sim PTX: Warning %p1 was declared previous at ispass-2009-BFS.1.sm_30.ptx:25 skipping new declaration
GPGPU-Sim PTX: Warning %p2 was declared previous at ispass-2009-BFS.1.sm_30.ptx:25 skipping new declaration
GPGPU-Sim PTX: Warning %p3 was declared previous at ispass-2009-BFS.1.sm_30.ptx:25 skipping new declaration
GPGPU-Sim PTX: Warning %p4 was declared previous at ispass-2009-BFS.1.sm_30.ptx:25 skipping new declaration
GPGPU-Sim PTX: Warning %p5 was declared previous at ispass-2009-BFS.1.sm_30.ptx:25 skipping new declaration
GPGPU-Sim PTX: Warning %rs0 was declared previous at ispass-2009-BFS.1.sm_30.ptx:26 skipping new declaration
GPGPU-Sim PTX: Warning %rs1 was declared previous at ispass-2009-BFS.1.sm_30.ptx:26 skipping new declaration
GPGPU-Sim PTX: Warning %rs2 was declared previous at ispass-2009-BFS.1.sm_30.ptx:26 skipping new declaration
GPGPU-Sim PTX: Warning %rs3 was declared previous at ispass-2009-BFS.1.sm_30.ptx:26 skipping new declaration
GPGPU-Sim PTX: Warning %rs4 was declared previous at ispass-2009-BFS.1.sm_30.ptx:26 skipping new declaration
GPGPU-Sim PTX: Warning %rs5 was declared previous at ispass-2009-BFS.1.sm_30.ptx:26 skipping new declaration
GPGPU-Sim PTX: Warning %r0 was declared previous at ispass-2009-BFS.1.sm_30.ptx:27 skipping new declaration
GPGPU-Sim PTX: Warning %r1 was declared previous at ispass-2009-BFS.1.sm_30.ptx:27 skipping new declaration
GPGPU-Sim PTX: Warning %r2 was declared previous at ispass-2009-BFS.1.sm_30.ptx:27 skipping new declaration
GPGPU-Sim PTX: Warning %r3 was declared previous at ispass-2009-BFS.1.sm_30.ptx:27 skipping new declaration
GPGPU-Sim PTX: Warning %r4 was declared previous at ispass-2009-BFS.1.sm_30.ptx:27 skipping new declaration
GPGPU-Sim PTX: Warning %r5 was declared previous at ispass-2009-BFS.1.sm_30.ptx:27 skipping new declaration
GPGPU-Sim PTX: Warning %r6 was declared previous at ispass-2009-BFS.1.sm_30.ptx:27 skipping new declaration
GPGPU-Sim PTX: Warning %r7 was declared previous at ispass-2009-BFS.1.sm_30.ptx:27 skipping new declaration
GPGPU-Sim PTX: Warning %r8 was declared previous at ispass-2009-BFS.1.sm_30.ptx:27 skipping new declaration
GPGPU-Sim PTX: Warning %r9 was declared previous at ispass-2009-BFS.1.sm_30.ptx:27 skipping new declaration
GPGPU-Sim PTX: Warning %r10 was declared previous at ispass-2009-BFS.1.sm_30.ptx:27 skipping new declaration
GPGPU-Sim PTX: Warning %r11 was declared previous at ispass-2009-BFS.1.sm_30.ptx:27 skipping new declaration
GPGPU-Sim PTX: Warning %r12 was declared previous at ispass-2009-BFS.1.sm_30.ptx:27 skipping new declaration
GPGPU-Sim PTX: Warning %r13 was declared previous at ispass-2009-BFS.1.sm_30.ptx:27 skipping new declaration
GPGPU-Sim PTX: Warning %r14 was declared previous at ispass-2009-BFS.1.sm_30.ptx:27 skipping new declaration
GPGPU-Sim PTX: Warning %r15 was declared previous at ispass-2009-BFS.1.sm_30.ptx:27 skipping new declaration
GPGPU-Sim PTX: Warning %r16 was declared previous at ispass-2009-BFS.1.sm_30.ptx:27 skipping new declaration
GPGPU-Sim PTX: Warning %r17 was declared previous at ispass-2009-BFS.1.sm_30.ptx:27 skipping new declaration
GPGPU-Sim PTX: Warning %r18 was declared previous at ispass-2009-BFS.1.sm_30.ptx:27 skipping new declaration
GPGPU-Sim PTX: Warning %r19 was declared previous at ispass-2009-BFS.1.sm_30.ptx:27 skipping new declaration
GPGPU-Sim PTX: Warning %r20 was declared previous at ispass-2009-BFS.1.sm_30.ptx:27 skipping new declaration
GPGPU-Sim PTX: Warning %r21 was declared previous at ispass-2009-BFS.1.sm_30.ptx:27 skipping new declaration
GPGPU-Sim PTX: Warning %r22 was declared previous at ispass-2009-BFS.1.sm_30.ptx:27 skipping new declaration
GPGPU-Sim PTX: Warning %r23 was declared previous at ispass-2009-BFS.1.sm_30.ptx:27 skipping new declaration
GPGPU-Sim PTX: Warning %r24 was declared previous at ispass-2009-BFS.1.sm_30.ptx:27 skipping new declaration
GPGPU-Sim PTX: Warning %rd0 was declared previous at ispass-2009-BFS.1.sm_30.ptx:28 skipping new declaration
GPGPU-Sim PTX: Warning %rd1 was declared previous at ispass-2009-BFS.1.sm_30.ptx:28 skipping new declaration
GPGPU-Sim PTX: Warning %rd2 was declared previous at ispass-2009-BFS.1.sm_30.ptx:28 skipping new declaration
GPGPU-Sim PTX: Warning %rd3 was declared previous at ispass-2009-BFS.1.sm_30.ptx:28 skipping new declaration
GPGPU-Sim PTX: Warning %rd4 was declared previous at ispass-2009-BFS.1.sm_30.ptx:28 skipping new declaration
GPGPU-Sim PTX: Warning %rd5 was declared previous at ispass-2009-BFS.1.sm_30.ptx:28 skipping new declaration
GPGPU-Sim PTX: Warning %rd6 was declared previous at ispass-2009-BFS.1.sm_30.ptx:28 skipping new declaration
GPGPU-Sim PTX: Warning %rd7 was declared previous at ispass-2009-BFS.1.sm_30.ptx:28 skipping new declaration
GPGPU-Sim PTX: Warning %rd8 was declared previous at ispass-2009-BFS.1.sm_30.ptx:28 skipping new declaration
GPGPU-Sim PTX: Warning %rd9 was declared previous at ispass-2009-BFS.1.sm_30.ptx:28 skipping new declaration
GPGPU-Sim PTX: Warning %rd10 was declared previous at ispass-2009-BFS.1.sm_30.ptx:28 skipping new declaration
GPGPU-Sim PTX: Warning %rd11 was declared previous at ispass-2009-BFS.1.sm_30.ptx:28 skipping new declaration
GPGPU-Sim PTX: Warning %rd12 was declared previous at ispass-2009-BFS.1.sm_30.ptx:28 skipping new declaration
GPGPU-Sim PTX: Warning %rd13 was declared previous at ispass-2009-BFS.1.sm_30.ptx:28 skipping new declaration
GPGPU-Sim PTX: Warning %rd14 was declared previous at ispass-2009-BFS.1.sm_30.ptx:28 skipping new declaration
GPGPU-Sim PTX: Warning %rd15 was declared previous at ispass-2009-BFS.1.sm_30.ptx:28 skipping new declaration
GPGPU-Sim PTX: Warning %rd16 was declared previous at ispass-2009-BFS.1.sm_30.ptx:28 skipping new declaration
GPGPU-Sim PTX: Warning %rd17 was declared previous at ispass-2009-BFS.1.sm_30.ptx:28 skipping new declaration
GPGPU-Sim PTX: Warning %rd18 was declared previous at ispass-2009-BFS.1.sm_30.ptx:28 skipping new declaration
GPGPU-Sim PTX: Warning %rd19 was declared previous at ispass-2009-BFS.1.sm_30.ptx:28 skipping new declaration
GPGPU-Sim PTX: Warning %rd20 was declared previous at ispass-2009-BFS.1.sm_30.ptx:28 skipping new declaration
GPGPU-Sim PTX: Warning %rd21 was declared previous at ispass-2009-BFS.1.sm_30.ptx:28 skipping new declaration
GPGPU-Sim PTX: Warning %rd22 was declared previous at ispass-2009-BFS.1.sm_30.ptx:28 skipping new declaration
GPGPU-Sim PTX: Warning %rd23 was declared previous at ispass-2009-BFS.1.sm_30.ptx:28 skipping new declaration
GPGPU-Sim PTX: Warning %rd24 was declared previous at ispass-2009-BFS.1.sm_30.ptx:28 skipping new declaration
GPGPU-Sim PTX: Warning %rd25 was declared previous at ispass-2009-BFS.1.sm_30.ptx:28 skipping new declaration
GPGPU-Sim PTX: Warning %rd26 was declared previous at ispass-2009-BFS.1.sm_30.ptx:28 skipping new declaration
GPGPU-Sim PTX: Warning %rd27 was declared previous at ispass-2009-BFS.1.sm_30.ptx:28 skipping new declaration
GPGPU-Sim PTX: Warning %rd28 was declared previous at ispass-2009-BFS.1.sm_30.ptx:28 skipping new declaration
GPGPU-Sim PTX: Warning %rd29 was declared previous at ispass-2009-BFS.1.sm_30.ptx:28 skipping new declaration
GPGPU-Sim PTX: Warning %rd30 was declared previous at ispass-2009-BFS.1.sm_30.ptx:28 skipping new declaration
GPGPU-Sim PTX: Warning %rd31 was declared previous at ispass-2009-BFS.1.sm_30.ptx:28 skipping new declaration
GPGPU-Sim PTX: Warning %rd32 was declared previous at ispass-2009-BFS.1.sm_30.ptx:28 skipping new declaration
GPGPU-Sim PTX: Warning %rd33 was declared previous at ispass-2009-BFS.1.sm_30.ptx:28 skipping new declaration
GPGPU-Sim PTX: Warning %rd34 was declared previous at ispass-2009-BFS.1.sm_30.ptx:28 skipping new declaration
GPGPU-Sim PTX: Warning %rd35 was declared previous at ispass-2009-BFS.2.sm_35.ptx:28 skipping new declaration
GPGPU-Sim PTX: instruction assembly for function '_Z6KernelP4NodePiPbS2_S1_S2_i'...   done.
GPGPU-Sim PTX: finished parsing EMBEDDED .ptx file ispass-2009-BFS.5.sm_62.ptx
GPGPU-Sim PTX: loading globals with explicit initializers... 
GPGPU-Sim PTX: finished loading globals (0 bytes total).
GPGPU-Sim PTX: loading constants with explicit initializers...  done.
GPGPU-Sim PTX: Loading PTXInfo from ispass-2009-BFS.1.sm_30.ptx
GPGPU-Sim PTX: Kernel '_Z6KernelP4NodePiPbS2_S1_S2_i' : regs=19, lmem=0, smem=0, cmem=372
GPGPU-Sim PTX: Loading PTXInfo from ispass-2009-BFS.2.sm_35.ptx
GPGPU-Sim PTX: Kernel '_Z6KernelP4NodePiPbS2_S1_S2_i' : regs=19, lmem=0, smem=0, cmem=372
GPGPU-Sim PTX: Loading PTXInfo from ispass-2009-BFS.3.sm_50.ptx
GPGPU-Sim PTX: Kernel '_Z6KernelP4NodePiPbS2_S1_S2_i' : regs=19, lmem=0, smem=0, cmem=372
GPGPU-Sim PTX: Loading PTXInfo from ispass-2009-BFS.4.sm_60.ptx
GPGPU-Sim PTX: Kernel '_Z6KernelP4NodePiPbS2_S1_S2_i' : regs=19, lmem=0, smem=0, cmem=372
GPGPU-Sim PTX: Loading PTXInfo from ispass-2009-BFS.5.sm_62.ptx
GPGPU-Sim PTX: Kernel '_Z6KernelP4NodePiPbS2_S1_S2_i' : regs=19, lmem=0, smem=0, cmem=372
Reading File
Input file: graph65536.txt
Read File
Copied Everything to GPU memory
GPGPU-Sim PTX: Setting up arguments for 8 bytes starting at 0x7ffda3c26378..
GPGPU-Sim PTX: Setting up arguments for 8 bytes starting at 0x7ffda3c26370..
GPGPU-Sim PTX: Setting up arguments for 8 bytes starting at 0x7ffda3c26368..
GPGPU-Sim PTX: Setting up arguments for 8 bytes starting at 0x7ffda3c26360..
GPGPU-Sim PTX: Setting up arguments for 8 bytes starting at 0x7ffda3c26358..
GPGPU-Sim PTX: Setting up arguments for 8 bytes starting at 0x7ffda3c26350..
GPGPU-Sim PTX: Setting up arguments for 4 bytes starting at 0x7ffda3c26420..

GPGPU-Sim PTX: cudaLaunch for 0x0x403910 (mode=performance simulation) on stream 0
GPGPU-Sim PTX: finding reconvergence points for '_Z6KernelP4NodePiPbS2_S1_S2_i'...
GPGPU-Sim PTX: Finding dominators for '_Z6KernelP4NodePiPbS2_S1_S2_i'...
GPGPU-Sim PTX: Finding immediate dominators for '_Z6KernelP4NodePiPbS2_S1_S2_i'...
GPGPU-Sim PTX: Finding postdominators for '_Z6KernelP4NodePiPbS2_S1_S2_i'...
GPGPU-Sim PTX: Finding immediate postdominators for '_Z6KernelP4NodePiPbS2_S1_S2_i'...
GPGPU-Sim PTX: pre-decoding instructions for '_Z6KernelP4NodePiPbS2_S1_S2_i'...
GPGPU-Sim PTX: reconvergence points for _Z6KernelP4NodePiPbS2_S1_S2_i...
GPGPU-Sim PTX:  1 (potential) branch divergence @  PC=0x840 (ispass-2009-BFS.5.sm_62.ptx:43) @%p1 bra BB0_7;
GPGPU-Sim PTX:    immediate post dominator      @  PC=0x9d0 (ispass-2009-BFS.5.sm_62.ptx:103) ret;
GPGPU-Sim PTX:  2 (potential) branch divergence @  PC=0x870 (ispass-2009-BFS.5.sm_62.ptx:50) @%p2 bra BB0_7;
GPGPU-Sim PTX:    immediate post dominator      @  PC=0x9d0 (ispass-2009-BFS.5.sm_62.ptx:103) ret;
GPGPU-Sim PTX:  3 (potential) branch divergence @  PC=0x8d8 (ispass-2009-BFS.5.sm_62.ptx:64) @%p3 bra BB0_7;
GPGPU-Sim PTX:    immediate post dominator      @  PC=0x9d0 (ispass-2009-BFS.5.sm_62.ptx:103) ret;
GPGPU-Sim PTX:  4 (potential) branch divergence @  PC=0x950 (ispass-2009-BFS.5.sm_62.ptx:82) @%p4 bra BB0_6;
GPGPU-Sim PTX:    immediate post dominator      @  PC=0x9a8 (ispass-2009-BFS.5.sm_62.ptx:96) add.s64 %rd35, %rd35, 4;
GPGPU-Sim PTX:  5 (potential) branch divergence @  PC=0x9c8 (ispass-2009-BFS.5.sm_62.ptx:100) @%p5 bra BB0_4;
GPGPU-Sim PTX:    immediate post dominator      @  PC=0x9d0 (ispass-2009-BFS.5.sm_62.ptx:103) ret;
GPGPU-Sim PTX: ... end of reconvergence points for _Z6KernelP4NodePiPbS2_S1_S2_i
GPGPU-Sim PTX: ... done pre-decoding instructions for '_Z6KernelP4NodePiPbS2_S1_S2_i'.
GPGPU-Sim PTX: pushing kernel '_Z6KernelP4NodePiPbS2_S1_S2_i' to stream 0, gridDim= (256,1,1) blockDim = (256,1,1) 
GPGPU-Sim uArch: Shader 0 bind to kernel 1 '_Z6KernelP4NodePiPbS2_S1_S2_i'
GPGPU-Sim uArch: CTA/core = 6, limited by: threads regs
GPGPU-Sim uArch: Shader 1 bind to kernel 1 '_Z6KernelP4NodePiPbS2_S1_S2_i'
GPGPU-Sim uArch: Shader 2 bind to kernel 1 '_Z6KernelP4NodePiPbS2_S1_S2_i'
GPGPU-Sim uArch: Shader 3 bind to kernel 1 '_Z6KernelP4NodePiPbS2_S1_S2_i'
GPGPU-Sim uArch: Shader 4 bind to kernel 1 '_Z6KernelP4NodePiPbS2_S1_S2_i'
GPGPU-Sim uArch: Shader 5 bind to kernel 1 '_Z6KernelP4NodePiPbS2_S1_S2_i'
GPGPU-Sim uArch: Shader 6 bind to kernel 1 '_Z6KernelP4NodePiPbS2_S1_S2_i'
GPGPU-Sim uArch: Shader 7 bind to kernel 1 '_Z6KernelP4NodePiPbS2_S1_S2_i'
GPGPU-Sim uArch: Shader 8 bind to kernel 1 '_Z6KernelP4NodePiPbS2_S1_S2_i'
GPGPU-Sim uArch: Shader 9 bind to kernel 1 '_Z6KernelP4NodePiPbS2_S1_S2_i'
GPGPU-Sim uArch: Shader 10 bind to kernel 1 '_Z6KernelP4NodePiPbS2_S1_S2_i'
GPGPU-Sim uArch: Shader 11 bind to kernel 1 '_Z6KernelP4NodePiPbS2_S1_S2_i'
GPGPU-Sim uArch: Shader 12 bind to kernel 1 '_Z6KernelP4NodePiPbS2_S1_S2_i'
GPGPU-Sim uArch: Shader 13 bind to kernel 1 '_Z6KernelP4NodePiPbS2_S1_S2_i'
GPGPU-Sim uArch: Shader 14 bind to kernel 1 '_Z6KernelP4NodePiPbS2_S1_S2_i'
Destroy streams for kernel 1: size 0
kernel_name = _Z6KernelP4NodePiPbS2_S1_S2_i 
kernel_launch_uid = 1 
gpu_sim_cycle = 7417
gpu_sim_insn = 1245363
gpu_ipc =     167.9066
gpu_tot_sim_cycle = 7417
gpu_tot_sim_insn = 1245363
gpu_tot_ipc =     167.9066
gpu_tot_issued_cta = 256
gpu_occupancy = 79.9296% 
gpu_tot_occupancy = 79.9296% 
max_total_param_size = 0
gpu_stall_dramfull = 0
gpu_stall_icnt2sh    = 0
partiton_level_parallism =       0.2936
partiton_level_parallism_total  =       0.2936
partiton_level_parallism_util =       2.0018
partiton_level_parallism_util_total  =       2.0018
L2_BW  =       7.0489 GB/Sec
L2_BW_total  =       7.0489 GB/Sec
gpu_total_sim_rate=415121

========= Core cache stats =========
L1I_cache:
	L1I_total_cache_accesses = 22626
	L1I_total_cache_misses = 1442
	L1I_total_cache_miss_rate = 0.0637
	L1I_total_cache_pending_hits = 0
	L1I_total_cache_reservation_fails = 8799
L1D_cache:
	L1D_cache_core[0]: Access = 0, Miss = 0, Miss_rate = -nan, Pending_hits = 0, Reservation_fails = 0
	L1D_cache_core[1]: Access = 0, Miss = 0, Miss_rate = -nan, Pending_hits = 0, Reservation_fails = 0
	L1D_cache_core[2]: Access = 0, Miss = 0, Miss_rate = -nan, Pending_hits = 0, Reservation_fails = 0
	L1D_cache_core[3]: Access = 0, Miss = 0, Miss_rate = -nan, Pending_hits = 0, Reservation_fails = 0
	L1D_cache_core[4]: Access = 0, Miss = 0, Miss_rate = -nan, Pending_hits = 0, Reservation_fails = 0
	L1D_cache_core[5]: Access = 0, Miss = 0, Miss_rate = -nan, Pending_hits = 0, Reservation_fails = 0
	L1D_cache_core[6]: Access = 0, Miss = 0, Miss_rate = -nan, Pending_hits = 0, Reservation_fails = 0
	L1D_cache_core[7]: Access = 0, Miss = 0, Miss_rate = -nan, Pending_hits = 0, Reservation_fails = 0
	L1D_cache_core[8]: Access = 0, Miss = 0, Miss_rate = -nan, Pending_hits = 0, Reservation_fails = 0
	L1D_cache_core[9]: Access = 0, Miss = 0, Miss_rate = -nan, Pending_hits = 0, Reservation_fails = 0
	L1D_cache_core[10]: Access = 0, Miss = 0, Miss_rate = -nan, Pending_hits = 0, Reservation_fails = 0
	L1D_cache_core[11]: Access = 0, Miss = 0, Miss_rate = -nan, Pending_hits = 0, Reservation_fails = 0
	L1D_cache_core[12]: Access = 0, Miss = 0, Miss_rate = -nan, Pending_hits = 0, Reservation_fails = 0
	L1D_cache_core[13]: Access = 0, Miss = 0, Miss_rate = -nan, Pending_hits = 0, Reservation_fails = 0
	L1D_cache_core[14]: Access = 0, Miss = 0, Miss_rate = -nan, Pending_hits = 0, Reservation_fails = 0
	L1D_total_cache_accesses = 0
	L1D_total_cache_misses = 0
	L1D_total_cache_pending_hits = 0
	L1D_total_cache_reservation_fails = 0
	L1D_cache_data_port_util = 0.000
	L1D_cache_fill_port_util = 0.000
L1C_cache:
	L1C_total_cache_accesses = 14336
	L1C_total_cache_misses = 480
	L1C_total_cache_miss_rate = 0.0335
	L1C_total_cache_pending_hits = 0
	L1C_total_cache_reservation_fails = 3254
L1T_cache:
	L1T_total_cache_accesses = 0
	L1T_total_cache_misses = 0
	L1T_total_cache_pending_hits = 0
	L1T_total_cache_reservation_fails = 0

Total_core_cache_stats:
	Total_core_cache_stats_breakdown[GLOBAL_ACC_R][HIT] = 0
	Total_core_cache_stats_breakdown[GLOBAL_ACC_R][HIT_RESERVED] = 0
	Total_core_cache_stats_breakdown[GLOBAL_ACC_R][MISS] = 0
	Total_core_cache_stats_breakdown[GLOBAL_ACC_R][RESERVATION_FAIL] = 0
	Total_core_cache_stats_breakdown[GLOBAL_ACC_R][SECTOR_MISS] = 0
	Total_core_cache_stats_breakdown[LOCAL_ACC_R][HIT] = 0
	Total_core_cache_stats_breakdown[LOCAL_ACC_R][HIT_RESERVED] = 0
	Total_core_cache_stats_breakdown[LOCAL_ACC_R][MISS] = 0
	Total_core_cache_stats_breakdown[LOCAL_ACC_R][RESERVATION_FAIL] = 0
	Total_core_cache_stats_breakdown[LOCAL_ACC_R][SECTOR_MISS] = 0
	Total_core_cache_stats_breakdown[CONST_ACC_R][HIT] = 13856
	Total_core_cache_stats_breakdown[CONST_ACC_R][HIT_RESERVED] = 0
	Total_core_cache_stats_breakdown[CONST_ACC_R][MISS] = 480
	Total_core_cache_stats_breakdown[CONST_ACC_R][RESERVATION_FAIL] = 3254
	Total_core_cache_stats_breakdown[CONST_ACC_R][SECTOR_MISS] = 0
	Total_core_cache_stats_breakdown[TEXTURE_ACC_R][HIT] = 0
	Total_core_cache_stats_breakdown[TEXTURE_ACC_R][HIT_RESERVED] = 0
	Total_core_cache_stats_breakdown[TEXTURE_ACC_R][MISS] = 0
	Total_core_cache_stats_breakdown[TEXTURE_ACC_R][RESERVATION_FAIL] = 0
	Total_core_cache_stats_breakdown[TEXTURE_ACC_R][SECTOR_MISS] = 0
	Total_core_cache_stats_breakdown[GLOBAL_ACC_W][HIT] = 0
	Total_core_cache_stats_breakdown[GLOBAL_ACC_W][HIT_RESERVED] = 0
	Total_core_cache_stats_breakdown[GLOBAL_ACC_W][MISS] = 0
	Total_core_cache_stats_breakdown[GLOBAL_ACC_W][RESERVATION_FAIL] = 0
	Total_core_cache_stats_breakdown[GLOBAL_ACC_W][SECTOR_MISS] = 0
	Total_core_cache_stats_breakdown[LOCAL_ACC_W][HIT] = 0
	Total_core_cache_stats_breakdown[LOCAL_ACC_W][HIT_RESERVED] = 0
	Total_core_cache_stats_breakdown[LOCAL_ACC_W][MISS] = 0
	Total_core_cache_stats_breakdown[LOCAL_ACC_W][RESERVATION_FAIL] = 0
	Total_core_cache_stats_breakdown[LOCAL_ACC_W][SECTOR_MISS] = 0
	Total_core_cache_stats_breakdown[L1_WRBK_ACC][HIT] = 0
	Total_core_cache_stats_breakdown[L1_WRBK_ACC][HIT_RESERVED] = 0
	Total_core_cache_stats_breakdown[L1_WRBK_ACC][MISS] = 0
	Total_core_cache_stats_breakdown[L1_WRBK_ACC][RESERVATION_FAIL] = 0
	Total_core_cache_stats_breakdown[L1_WRBK_ACC][SECTOR_MISS] = 0
	Total_core_cache_stats_breakdown[L2_WRBK_ACC][HIT] = 0
	Total_core_cache_stats_breakdown[L2_WRBK_ACC][HIT_RESERVED] = 0
	Total_core_cache_stats_breakdown[L2_WRBK_ACC][MISS] = 0
	Total_core_cache_stats_breakdown[L2_WRBK_ACC][RESERVATION_FAIL] = 0
	Total_core_cache_stats_breakdown[L2_WRBK_ACC][SECTOR_MISS] = 0
	Total_core_cache_stats_breakdown[INST_ACC_R][HIT] = 21184
	Total_core_cache_stats_breakdown[INST_ACC_R][HIT_RESERVED] = 0
	Total_core_cache_stats_breakdown[INST_ACC_R][MISS] = 1442
	Total_core_cache_stats_breakdown[INST_ACC_R][RESERVATION_FAIL] = 8799
	Total_core_cache_stats_breakdown[INST_ACC_R][SECTOR_MISS] = 0
	Total_core_cache_stats_breakdown[L1_WR_ALLOC_R][HIT] = 0
	Total_core_cache_stats_breakdown[L1_WR_ALLOC_R][HIT_RESERVED] = 0
	Total_core_cache_stats_breakdown[L1_WR_ALLOC_R][MISS] = 0
	Total_core_cache_stats_breakdown[L1_WR_ALLOC_R][RESERVATION_FAIL] = 0
	Total_core_cache_stats_breakdown[L1_WR_ALLOC_R][SECTOR_MISS] = 0
	Total_core_cache_stats_breakdown[L2_WR_ALLOC_R][HIT] = 0
	Total_core_cache_stats_breakdown[L2_WR_ALLOC_R][HIT_RESERVED] = 0
	Total_core_cache_stats_breakdown[L2_WR_ALLOC_R][MISS] = 0
	Total_core_cache_stats_breakdown[L2_WR_ALLOC_R][RESERVATION_FAIL] = 0
	Total_core_cache_stats_breakdown[L2_WR_ALLOC_R][SECTOR_MISS] = 0
	Total_core_cache_stats_breakdown[CONST_ACC_R][TOTAL_ACCESS] = 14336
	Total_core_cache_stats_breakdown[INST_ACC_R][TOTAL_ACCESS] = 22626

Total_core_cache_fail_stats:
	Total_core_cache_fail_stats_breakdown[CONST_ACC_R][MSHR_MERGE_ENRTY_FAIL] = 3254
	Total_core_cache_fail_stats_breakdown[INST_ACC_R][MSHR_MERGE_ENRTY_FAIL] = 8799
ctas_completed 256, Shader 0 warp_id issue ditsribution:
warp_id:
0, 1, 2, 3, 4, 5, 6, 7, 8, 9, 10, 11, 12, 13, 14, 15, 16, 17, 18, 19, 20, 21, 22, 23, 24, 25, 26, 27, 28, 29, 30, 31, 32, 33, 34, 35, 36, 37, 38, 39, 40, 41, 42, 43, 44, 45, 46, 47, 
distro:
210, 20, 20, 20, 20, 20, 20, 20, 80, 80, 80, 80, 80, 80, 80, 80, 60, 60, 60, 60, 60, 60, 60, 60, 60, 60, 60, 60, 60, 60, 60, 60, 60, 60, 60, 60, 60, 60, 60, 60, 60, 60, 60, 60, 60, 60, 60, 60, 
gpgpu_n_tot_thrd_icount = 1316800
gpgpu_n_tot_w_icount = 41150
gpgpu_n_stall_shd_mem = 3254
gpgpu_n_mem_read_local = 0
gpgpu_n_mem_write_local = 0
gpgpu_n_mem_read_global = 2090
gpgpu_n_mem_write_global = 26
gpgpu_n_mem_texture = 0
gpgpu_n_mem_const = 15
gpgpu_n_load_insn  = 65578
gpgpu_n_store_insn = 26
gpgpu_n_shmem_insn = 0
gpgpu_n_sstarr_insn = 0
gpgpu_n_tex_insn = 0
gpgpu_n_const_mem_insn = 0
gpgpu_n_param_mem_insn = 458752
gpgpu_n_shmem_bkconflict = 0
gpgpu_n_cache_bkconflict = 0
gpgpu_n_intrawarp_mshr_merge = 0
gpgpu_n_cmem_portconflict = 3254
gpgpu_stall_shd_mem[c_mem][resource_stall] = 3254
gpgpu_stall_shd_mem[s_mem][bk_conf] = 0
gpgpu_stall_shd_mem[gl_mem][resource_stall] = 0
gpgpu_stall_shd_mem[gl_mem][coal_stall] = 0
gpgpu_stall_shd_mem[gl_mem][data_port_stall] = 0
gpu_reg_bank_conflict_stalls = 0
Warp Occupancy Distribution:
Stall:13924	W0_Idle:20134	W0_Scoreboard:14138	W1:190	W2:0	W3:0	W4:0	W5:0	W6:0	W7:0	W8:0	W9:0	W10:0	W11:0	W12:0	W13:0	W14:0	W15:0	W16:0	W17:0	W18:0	W19:0	W20:0	W21:0	W22:0	W23:0	W24:0	W25:0	W26:0	W27:0	W28:0	W29:0	W30:0	W31:0	W32:40960
single_issue_nums: WS0:20670	WS1:20480	
dual_issue_nums: WS0:0	WS1:0	
traffic_breakdown_coretomem[CONST_ACC_R] = 120 {8:15,}
traffic_breakdown_coretomem[GLOBAL_ACC_R] = 16720 {8:2090,}
traffic_breakdown_coretomem[GLOBAL_ACC_W] = 1040 {40:26,}
traffic_breakdown_coretomem[INST_ACC_R] = 376 {8:47,}
traffic_breakdown_memtocore[CONST_ACC_R] = 1200 {40:30,}
traffic_breakdown_memtocore[GLOBAL_ACC_R] = 83600 {40:2090,}
traffic_breakdown_memtocore[GLOBAL_ACC_W] = 208 {8:26,}
traffic_breakdown_memtocore[INST_ACC_R] = 7520 {40:188,}
maxmflatency = 278 
max_icnt2mem_latency = 21 
maxmrqlatency = 12 
max_icnt2sh_latency = 8 
averagemflatency = 138 
avg_icnt2mem_latency = 7 
avg_mrq_latency = 5 
avg_icnt2sh_latency = 7 
mrq_lat_table:11 	3 	0 	10 	0 	0 	0 	0 	0 	0 	0 	0 	0 	0 	0 	0 	0 	0 	0 	0 	0 	0 	0 	0 	0 	0 	0 	0 	0 	0 	0 	0 	
dq_lat_table:0 	0 	0 	0 	0 	0 	0 	0 	0 	0 	0 	0 	0 	0 	0 	0 	0 	0 	0 	0 	0 	0 	0 	0 	0 	0 	0 	0 	0 	0 	0 	0 	
mf_lat_table:0 	0 	0 	0 	0 	0 	0 	2137 	9 	0 	0 	0 	0 	0 	0 	0 	0 	0 	0 	0 	0 	0 	0 	0 	0 	0 	0 	0 	0 	0 	0 	0 	
icnt2mem_lat_table:0 	0 	1882 	281 	15 	0 	0 	0 	0 	0 	0 	0 	0 	0 	0 	0 	0 	0 	0 	0 	0 	0 	0 	0 	
icnt2sh_lat_table:0 	0 	2141 	5 	0 	0 	0 	0 	0 	0 	0 	0 	0 	0 	0 	0 	0 	0 	0 	0 	0 	0 	0 	0 	
mf_lat_pw_table:0 	0 	0 	0 	0 	0 	0 	13 	0 	0 	0 	0 	0 	0 	0 	0 	0 	0 	0 	0 	0 	0 	0 	0 	0 	0 	0 	0 	0 	0 	0 	0 	
maximum concurrent accesses to same row:
dram[0]:         0         0         0         0         0         0         0         0         0         0         0         0         0         0         0         0 
dram[1]:         0         0         0         0         0         0         0         0         0         0         0         0         0         0         0         0 
dram[2]:         0         0         0         0         0         0         0         0         0         0         0         0         0         0         0         0 
dram[3]:         0         0         0         0         0         0         0         0         0         0         0         0         0         0         0         0 
dram[4]:         0         0         0         0         0         0         0         0         0         0         0         0         0         0         0         0 
dram[5]:         0         0         0         0         0         0         0         0         0         0         0         0         0         0         0         0 
maximum service time to same row:
dram[0]:         0         0         0         0         0         0         0         0         0         0         0         0         0         0         0         0 
dram[1]:         0       232         0         0         0         0         0         0         0         0         0         0         0         0         0         0 
dram[2]:         0       769         0         0         0      2297         0         0         0         0         0         0         0         0         0         0 
dram[3]:         0      1368         0         0         0         0         0         0         0         0         0         0         0         0         0         0 
dram[4]:         0         0         0         0         0         0         0         0         0         0         0         0         0         0         0         0 
dram[5]:         0         0         0         0         0         0         0         0         0         0         0         0         0         0         0         0 
average row accesses per activate:
dram[0]:       inf      -nan      -nan      -nan      -nan      -nan      -nan      -nan      -nan      -nan      -nan      -nan      -nan      -nan      -nan      -nan 
dram[1]:      -nan  4.000000      -nan      -nan      -nan      -nan      -nan      -nan      -nan      -nan      -nan      -nan      -nan      -nan      -nan      -nan 
dram[2]:      -nan  8.000000      -nan      -nan      -nan  1.000000      -nan      -nan      -nan      -nan      -nan      -nan      -nan      -nan      -nan      -nan 
dram[3]:      -nan  8.000000      -nan      -nan      -nan      -nan      -nan      -nan      -nan      -nan      -nan      -nan      -nan      -nan      -nan      -nan 
dram[4]:      -nan      -nan      -nan      -nan      -nan      -nan      -nan      -nan      -nan      -nan      -nan      -nan      -nan      -nan      -nan      -nan 
dram[5]:      -nan      -nan      -nan      -nan      -nan      -nan      -nan      -nan      -nan      -nan      -nan      -nan      -nan      -nan      -nan      -nan 
average row locality = 24/4 = 6.000000
number of total memory accesses made:
dram[0]:         0         0         0         0         0         0         0         0         0         0         0         0         0         0         0         0 
dram[1]:         0         0         0         0         0         0         0         0         0         0         0         0         0         0         0         0 
dram[2]:         0         0         0         0         0         0         0         0         0         0         0         0         0         0         0         0 
dram[3]:         0         0         0         0         0         0         0         0         0         0         0         0         0         0         0         0 
dram[4]:         0         0         0         0         0         0         0         0         0         0         0         0         0         0         0         0 
dram[5]:         0         0         0         0         0         0         0         0         0         0         0         0         0         0         0         0 
total accesses: 0
min_bank_accesses = 0!
min_chip_accesses = 0!
number of total read accesses:
dram[0]:         0         0         0         0         0         0         0         0         0         0         0         0         0         0         0         0 
dram[1]:         0         0         0         0         0         0         0         0         0         0         0         0         0         0         0         0 
dram[2]:         0         0         0         0         0         0         0         0         0         0         0         0         0         0         0         0 
dram[3]:         0         0         0         0         0         0         0         0         0         0         0         0         0         0         0         0 
dram[4]:         0         0         0         0         0         0         0         0         0         0         0         0         0         0         0         0 
dram[5]:         0         0         0         0         0         0         0         0         0         0         0         0         0         0         0         0 
total dram reads = 0
min_bank_accesses = 0!
min_chip_accesses = 0!
number of total write accesses:
dram[0]:         0         0         0         0         0         0         0         0         0         0         0         0         0         0         0         0 
dram[1]:         0         0         0         0         0         0         0         0         0         0         0         0         0         0         0         0 
dram[2]:         0         0         0         0         0         0         0         0         0         0         0         0         0         0         0         0 
dram[3]:         0         0         0         0         0         0         0         0         0         0         0         0         0         0         0         0 
dram[4]:         0         0         0         0         0         0         0         0         0         0         0         0         0         0         0         0 
dram[5]:         0         0         0         0         0         0         0         0         0         0         0         0         0         0         0         0 
total dram writes = 0
min_bank_accesses = 0!
min_chip_accesses = 0!
average mf latency per bank:
dram[0]:     none      none      none      none      none      none      none      none      none      none      none      none      none      none      none      none  
dram[1]:     none      none      none      none      none      none      none      none      none      none      none      none      none      none      none      none  
[...]
dram[3]:       1347      1179      1331      1004       957      1181      1136      1132      1197      1169      1604      1521      1428      1334      1287      1231
dram[4]:       1304      1206      1152      1174      1158      1102      1159      1406      1328      1065      1253      1144      1615      1106      1258      1298
dram[5]:       1171      1294      1145      1158      1383      1186      1068      1268       962       974      1335      1346      1662      1311      1424      1181
Memory Partition 0: 
Cache L2_bank_000:
MSHR contents

Cache L2_bank_001:
MSHR contents

In Dram Latency Queue (total = 0): 
DRAM[0]: 16 bks, busW=4 BL=8 CL=12, tRRD=6 tCCD=2, tRCD=12 tRAS=28 tRP=12 tRC=40
n_cmd=398961 n_nop=357119 n_act=5938 n_pre=5922 n_ref_event=37881296 n_req=28768 n_rd=26211 n_rd_L2_A=0 n_write=0 n_wr_bk=4151 bw_util=0.1522
n_activity=206289 dram_eff=0.2944
bk0: 2018a 376244i bk1: 2014a 375821i bk2: 1933a 376804i bk3: 1973a 376811i bk4: 1825a 374826i bk5: 1782a 376049i bk6: 1484a 383396i bk7: 1462a 384862i bk8: 1349a 390978i bk9: 1361a 389580i bk10: 1353a 383919i bk11: 1377a 379795i bk12: 1646a 374437i bk13: 1612a 374226i bk14: 1489a 379605i bk15: 1533a 379528i 

------------------------------------------------------------------------

Row_Buffer_Locality = 0.793938
Row_Buffer_Locality_read = 0.833162
Row_Buffer_Locality_write = 0.391865
Bank_Level_Parallism = 2.193948
Bank_Level_Parallism_Col = 0.000000
Bank_Level_Parallism_Ready = 1.409154
write_to_read_ratio_blp_rw_average = 0.000000
GrpLevelPara = 0.000000 

BW Util details:
bwutil = 0.152205 
total_CMD = 398961 
util_bw = 60724 
Wasted_Col = 62858 
Wasted_Row = 31845 
Idle = 243534 

BW Util Bottlenecks: 
RCDc_limit = 40646 
RCDWRc_limit = 7009 
WTRc_limit = 10253 
RTWc_limit = 25027 
CCDLc_limit = 15456 
rwq = 0 
CCDLc_limit_alone = 11889 
WTRc_limit_alone = 9779 
RTWc_limit_alone = 21934 

Commands details: 
total_CMD = 398961 
n_nop = 357119 
Read = 26211 
Write = 0 
L2_Alloc = 0 
L2_WB = 4151 
n_act = 5938 
n_pre = 5922 
n_ref = 37881296 
n_req = 28768 
total_req = 30362 

Dual Bus Interface Util: 
issued_total_row = 11860 
issued_total_col = 30362 
Row_Bus_Util =  0.029727 
CoL_Bus_Util = 0.076103 
Either_Row_CoL_Bus_Util = 0.104877 
Issued_on_Two_Bus_Simul_Util = 0.000952 
issued_two_Eff = 0.009082 
queue_avg = 2.070889 


dram_util_bins: 0 0 0 0 0 0 0 0 0 0
dram_eff_bins: 0 0 0 0 0 0 0 0 0 0
mrqq: max=64 avg=2.07089
Memory Partition 1: 
Cache L2_bank_002:
MSHR contents

Cache L2_bank_003:
MSHR contents

In Dram Latency Queue (total = 0): 
DRAM[1]: 16 bks, busW=4 BL=8 CL=12, tRRD=6 tCCD=2, tRCD=12 tRAS=28 tRP=12 tRC=40
n_cmd=398961 n_nop=356401 n_act=6121 n_pre=6105 n_ref_event=0 n_req=29135 n_rd=26499 n_rd_L2_A=0 n_write=0 n_wr_bk=4218 bw_util=0.154
n_activity=206789 dram_eff=0.2971
bk0: 1952a 375730i bk1: 2120a 375088i bk2: 1899a 377248i bk3: 2013a 375049i bk4: 1829a 375321i bk5: 1799a 373762i bk6: 1401a 384526i bk7: 1520a 383382i bk8: 1363a 390594i bk9: 1382a 390275i bk10: 1327a 384221i bk11: 1403a 381315i bk12: 1652a 374512i bk13: 1775a 373404i bk14: 1487a 379541i bk15: 1577a 379945i 

------------------------------------------------------------------------

Row_Buffer_Locality = 0.790149
Row_Buffer_Locality_read = 0.831465
Row_Buffer_Locality_write = 0.374810
Bank_Level_Parallism = 2.188531
Bank_Level_Parallism_Col = 2.044507
Bank_Level_Parallism_Ready = 1.390948
write_to_read_ratio_blp_rw_average = 0.288555
GrpLevelPara = 1.505970 

BW Util details:
bwutil = 0.153985 
total_CMD = 398961 
util_bw = 61434 
Wasted_Col = 63674 
Wasted_Row = 32022 
Idle = 241831 

BW Util Bottlenecks: 
RCDc_limit = 40893 
RCDWRc_limit = 7442 
WTRc_limit = 11170 
RTWc_limit = 26054 
CCDLc_limit = 16036 
rwq = 0 
CCDLc_limit_alone = 12211 
WTRc_limit_alone = 10611 
RTWc_limit_alone = 22788 

Commands details: 
total_CMD = 398961 
n_nop = 356401 
Read = 26499 
Write = 0 
L2_Alloc = 0 
L2_WB = 4218 
n_act = 6121 
n_pre = 6105 
n_ref = 0 
n_req = 29135 
total_req = 30717 

Dual Bus Interface Util: 
issued_total_row = 12226 
issued_total_col = 30717 
Row_Bus_Util =  0.030645 
CoL_Bus_Util = 0.076992 
Either_Row_CoL_Bus_Util = 0.106677 
Issued_on_Two_Bus_Simul_Util = 0.000960 
issued_two_Eff = 0.008999 
queue_avg = 1.987508 


dram_util_bins: 0 0 0 0 0 0 0 0 0 0
dram_eff_bins: 0 0 0 0 0 0 0 0 0 0
mrqq: max=64 avg=1.98751
Memory Partition 2: 
Cache L2_bank_004:
MSHR contents

Cache L2_bank_005:
MSHR contents

In Dram Latency Queue (total = 0): 
DRAM[2]: 16 bks, busW=4 BL=8 CL=12, tRRD=6 tCCD=2, tRCD=12 tRAS=28 tRP=12 tRC=40
n_cmd=398961 n_nop=353719 n_act=6631 n_pre=6615 n_ref_event=0 n_req=30664 n_rd=27837 n_rd_L2_A=0 n_write=0 n_wr_bk=4572 bw_util=0.1625
n_activity=218707 dram_eff=0.2964
bk0: 1926a 377731i bk1: 2266a 371728i bk2: 1924a 374501i bk3: 2176a 371333i bk4: 1756a 375586i bk5: 2094a 369937i bk6: 1453a 383458i bk7: 1628a 381991i bk8: 1297a 391121i bk9: 1682a 387542i bk10: 1334a 383469i bk11: 1495a 379899i bk12: 1643a 376139i bk13: 1896a 370027i bk14: 1550a 380729i bk15: 1717a 375250i 

------------------------------------------------------------------------

Row_Buffer_Locality = 0.783916
Row_Buffer_Locality_read = 0.824802
Row_Buffer_Locality_write = 0.381323
Bank_Level_Parallism = 2.188377
Bank_Level_Parallism_Col = 2.044084
Bank_Level_Parallism_Ready = 1.391895
write_to_read_ratio_blp_rw_average = 0.291759
GrpLevelPara = 1.502392 

BW Util details:
bwutil = 0.162467 
total_CMD = 398961 
util_bw = 64818 
Wasted_Col = 69353 
Wasted_Row = 34447 
Idle = 230343 

BW Util Bottlenecks: 
RCDc_limit = 44809 
RCDWRc_limit = 8091 
WTRc_limit = 12314 
RTWc_limit = 28638 
CCDLc_limit = 15806 
rwq = 0 
CCDLc_limit_alone = 12050 
WTRc_limit_alone = 11771 
RTWc_limit_alone = 25425 

Commands details: 
total_CMD = 398961 
n_nop = 353719 
Read = 27837 
Write = 0 
L2_Alloc = 0 
L2_WB = 4572 
n_act = 6631 
n_pre = 6615 
n_ref = 0 
n_req = 30664 
total_req = 32409 

Dual Bus Interface Util: 
issued_total_row = 13246 
issued_total_col = 32409 
Row_Bus_Util =  0.033201 
CoL_Bus_Util = 0.081234 
Either_Row_CoL_Bus_Util = 0.113400 
Issued_on_Two_Bus_Simul_Util = 0.001035 
issued_two_Eff = 0.009129 
queue_avg = 2.051980 


dram_util_bins: 0 0 0 0 0 0 0 0 0 0
dram_eff_bins: 0 0 0 0 0 0 0 0 0 0
mrqq: max=64 avg=2.05198
Memory Partition 3: 
Cache L2_bank_006:
MSHR contents

Cache L2_bank_007:
MSHR contents

In Dram Latency Queue (total = 0): 
DRAM[3]: 16 bks, busW=4 BL=8 CL=12, tRRD=6 tCCD=2, tRCD=12 tRAS=28 tRP=12 tRC=40
n_cmd=398961 n_nop=354887 n_act=6484 n_pre=6468 n_ref_event=0 n_req=29867 n_rd=27028 n_rd_L2_A=0 n_write=0 n_wr_bk=4529 bw_util=0.1582
n_activity=211763 dram_eff=0.298
bk0: 1913a 376445i bk1: 2125a 373802i bk2: 1907a 377180i bk3: 2134a 373501i bk4: 1772a 375503i bk5: 1873a 373494i bk6: 1456a 383409i bk7: 1616a 382759i bk8: 1418a 389635i bk9: 1448a 389441i bk10: 1389a 382713i bk11: 1442a 379959i bk12: 1673a 374876i bk13: 1701a 371720i bk14: 1497a 379530i bk15: 1664a 376248i 

------------------------------------------------------------------------

Row_Buffer_Locality = 0.783072
Row_Buffer_Locality_read = 0.825588
Row_Buffer_Locality_write = 0.378302
Bank_Level_Parallism = 2.186780
Bank_Level_Parallism_Col = 0.000000
Bank_Level_Parallism_Ready = 1.410558
write_to_read_ratio_blp_rw_average = 0.000000
GrpLevelPara = 0.000000 

BW Util details:
bwutil = 0.158196 
total_CMD = 398961 
util_bw = 63114 
Wasted_Col = 67714 
Wasted_Row = 32622 
Idle = 235511 

BW Util Bottlenecks: 
RCDc_limit = 43233 
RCDWRc_limit = 8084 
WTRc_limit = 12527 
RTWc_limit = 27718 
CCDLc_limit = 16526 
rwq = 0 
CCDLc_limit_alone = 12677 
WTRc_limit_alone = 12006 
RTWc_limit_alone = 24390 

Commands details: 
total_CMD = 398961 
n_nop = 354887 
Read = 27028 
Write = 0 
L2_Alloc = 0 
L2_WB = 4529 
n_act = 6484 
n_pre = 6468 
n_ref = 0 
n_req = 29867 
total_req = 31557 

Dual Bus Interface Util: 
issued_total_row = 12952 
issued_total_col = 31557 
Row_Bus_Util =  0.032464 
CoL_Bus_Util = 0.079098 
Either_Row_CoL_Bus_Util = 0.110472 
Issued_on_Two_Bus_Simul_Util = 0.001090 
issued_two_Eff = 0.009870 
queue_avg = 2.053471 


dram_util_bins: 0 0 0 0 0 0 0 0 0 0
dram_eff_bins: 0 0 0 0 0 0 0 0 0 0
mrqq: max=64 avg=2.05347
Memory Partition 4: 
Cache L2_bank_008:
MSHR contents

Cache L2_bank_009:
MSHR contents

In Dram Latency Queue (total = 0): 
DRAM[4]: 16 bks, busW=4 BL=8 CL=12, tRRD=6 tCCD=2, tRCD=12 tRAS=28 tRP=12 tRC=40
n_cmd=398961 n_nop=356267 n_act=6196 n_pre=6180 n_ref_event=0 n_req=29073 n_rd=26395 n_rd_L2_A=0 n_write=0 n_wr_bk=4316 bw_util=0.154
n_activity=208499 dram_eff=0.2946
bk0: 2002a 376175i bk1: 2008a 374406i bk2: 1944a 376367i bk3: 1916a 377028i bk4: 1784a 375571i bk5: 1807a 375031i bk6: 1475a 383747i bk7: 1472a 384956i bk8: 1463a 388384i bk9: 1386a 389524i bk10: 1377a 382585i bk11: 1402a 380637i bk12: 1718a 372601i bk13: 1602a 374388i bk14: 1484a 380085i bk15: 1555a 378415i 

------------------------------------------------------------------------

Row_Buffer_Locality = 0.787191
Row_Buffer_Locality_read = 0.827998
Row_Buffer_Locality_write = 0.384989
Bank_Level_Parallism = 2.206065
Bank_Level_Parallism_Col = 2.062314
Bank_Level_Parallism_Ready = 1.411793
write_to_read_ratio_blp_rw_average = 0.283059
GrpLevelPara = 1.499324 

BW Util details:
bwutil = 0.153955 
total_CMD = 398961 
util_bw = 61422 
Wasted_Col = 64618 
Wasted_Row = 31793 
Idle = 241128 

BW Util Bottlenecks: 
RCDc_limit = 42105 
RCDWRc_limit = 7558 
WTRc_limit = 12121 
RTWc_limit = 25511 
CCDLc_limit = 15842 
rwq = 0 
CCDLc_limit_alone = 12176 
WTRc_limit_alone = 11559 
RTWc_limit_alone = 22407 

Commands details: 
total_CMD = 398961 
n_nop = 356267 
Read = 26395 
Write = 0 
L2_Alloc = 0 
L2_WB = 4316 
n_act = 6196 
n_pre = 6180 
n_ref = 0 
n_req = 29073 
total_req = 30711 

Dual Bus Interface Util: 
issued_total_row = 12376 
issued_total_col = 30711 
Row_Bus_Util =  0.031021 
CoL_Bus_Util = 0.076977 
Either_Row_CoL_Bus_Util = 0.107013 
Issued_on_Two_Bus_Simul_Util = 0.000985 
issued_two_Eff = 0.009205 
queue_avg = 1.977514 


dram_util_bins: 0 0 0 0 0 0 0 0 0 0
dram_eff_bins: 0 0 0 0 0 0 0 0 0 0
mrqq: max=64 avg=1.97751
Memory Partition 5: 
Cache L2_bank_010:
MSHR contents

Cache L2_bank_011:
MSHR contents

In Dram Latency Queue (total = 0): 
DRAM[5]: 16 bks, busW=4 BL=8 CL=12, tRRD=6 tCCD=2, tRCD=12 tRAS=28 tRP=12 tRC=40
n_cmd=398961 n_nop=356287 n_act=6159 n_pre=6143 n_ref_event=4562280503665652019 n_req=29177 n_rd=26489 n_rd_L2_A=0 n_write=0 n_wr_bk=4273 bw_util=0.1542
n_activity=206976 dram_eff=0.2973
bk0: 1984a 375112i bk1: 1976a 373937i bk2: 1967a 376204i bk3: 1998a 374815i bk4: 1778a 375961i bk5: 1847a 376075i bk6: 1464a 385015i bk7: 1520a 383255i bk8: 1383a 389737i bk9: 1359a 390299i bk10: 1317a 383408i bk11: 1428a 381375i bk12: 1690a 372272i bk13: 1660a 373943i bk14: 1517a 377890i bk15: 1601a 379018i 

------------------------------------------------------------------------

Row_Buffer_Locality = 0.789218
Row_Buffer_Locality_read = 0.829250
Row_Buffer_Locality_write = 0.394717
Bank_Level_Parallism = 2.208802
Bank_Level_Parallism_Col = 2.519518
Bank_Level_Parallism_Ready = 1.434958
write_to_read_ratio_blp_rw_average = 0.276730
GrpLevelPara = 1.504391 

BW Util details:
bwutil = 0.154211 
total_CMD = 398961 
util_bw = 61524 
Wasted_Col = 64369 
Wasted_Row = 32373 
Idle = 240695 

BW Util Bottlenecks: 
RCDc_limit = 41564 
RCDWRc_limit = 7496 
WTRc_limit = 11939 
RTWc_limit = 24662 
CCDLc_limit = 15686 
rwq = 0 
CCDLc_limit_alone = 12164 
WTRc_limit_alone = 11370 
RTWc_limit_alone = 21709 

Commands details: 
total_CMD = 398961 
n_nop = 356287 
Read = 26489 
Write = 0 
L2_Alloc = 0 
L2_WB = 4273 
n_act = 6159 
n_pre = 6143 
n_ref = 4562280503665652019 
n_req = 29177 
total_req = 30762 

Dual Bus Interface Util: 
issued_total_row = 12302 
issued_total_col = 30762 
Row_Bus_Util =  0.030835 
CoL_Bus_Util = 0.077105 
Either_Row_CoL_Bus_Util = 0.106963 
Issued_on_Two_Bus_Simul_Util = 0.000978 
issued_two_Eff = 0.009139 
queue_avg = 2.079562 


dram_util_bins: 0 0 0 0 0 0 0 0 0 0
dram_eff_bins: 0 0 0 0 0 0 0 0 0 0
mrqq: max=64 avg=2.07956

========= L2 cache stats =========
L2_cache_bank[0]: Access = 131143, Miss = 26641, Miss_rate = 0.203, Pending_hits = 896, Reservation_fails = 112
L2_cache_bank[1]: Access = 129106, Miss = 27365, Miss_rate = 0.212, Pending_hits = 835, Reservation_fails = 10
L2_cache_bank[2]: Access = 130799, Miss = 26554, Miss_rate = 0.203, Pending_hits = 839, Reservation_fails = 6
L2_cache_bank[3]: Access = 130459, Miss = 27633, Miss_rate = 0.212, Pending_hits = 988, Reservation_fails = 112
L2_cache_bank[4]: Access = 131345, Miss = 27456, Miss_rate = 0.209, Pending_hits = 924, Reservation_fails = 1
L2_cache_bank[5]: Access = 170365, Miss = 47226, Miss_rate = 0.277, Pending_hits = 1461, Reservation_fails = 113
L2_cache_bank[6]: Access = 131257, Miss = 28635, Miss_rate = 0.218, Pending_hits = 967, Reservation_fails = 4
L2_cache_bank[7]: Access = 130590, Miss = 28957, Miss_rate = 0.222, Pending_hits = 1095, Reservation_fails = 102
L2_cache_bank[8]: Access = 129864, Miss = 28372, Miss_rate = 0.218, Pending_hits = 924, Reservation_fails = 1
L2_cache_bank[9]: Access = 130618, Miss = 27574, Miss_rate = 0.211, Pending_hits = 845, Reservation_fails = 9
L2_cache_bank[10]: Access = 129956, Miss = 26979, Miss_rate = 0.208, Pending_hits = 867, Reservation_fails = 2
L2_cache_bank[11]: Access = 131151, Miss = 28350, Miss_rate = 0.216, Pending_hits = 1033, Reservation_fails = 5
L2_total_cache_accesses = 1606653
L2_total_cache_misses = 351742
L2_total_cache_miss_rate = 0.2189
L2_total_cache_pending_hits = 11674
L2_total_cache_reservation_fails = 477
L2_total_cache_breakdown:
	L2_cache_stats_breakdown[GLOBAL_ACC_R][HIT] = 1033545
	L2_cache_stats_breakdown[GLOBAL_ACC_R][HIT_RESERVED] = 11486
	L2_cache_stats_breakdown[GLOBAL_ACC_R][MISS] = 55893
	L2_cache_stats_breakdown[GLOBAL_ACC_R][RESERVATION_FAIL] = 52
	L2_cache_stats_breakdown[GLOBAL_ACC_R][SECTOR_MISS] = 104544
	L2_cache_stats_breakdown[LOCAL_ACC_R][HIT] = 0
	L2_cache_stats_breakdown[LOCAL_ACC_R][HIT_RESERVED] = 0
	L2_cache_stats_breakdown[LOCAL_ACC_R][MISS] = 0
	L2_cache_stats_breakdown[LOCAL_ACC_R][RESERVATION_FAIL] = 0
	L2_cache_stats_breakdown[LOCAL_ACC_R][SECTOR_MISS] = 0
	L2_cache_stats_breakdown[CONST_ACC_R][HIT] = 22
	L2_cache_stats_breakdown[CONST_ACC_R][HIT_RESERVED] = 6
	L2_cache_stats_breakdown[CONST_ACC_R][MISS] = 1
	L2_cache_stats_breakdown[CONST_ACC_R][RESERVATION_FAIL] = 106
	L2_cache_stats_breakdown[CONST_ACC_R][SECTOR_MISS] = 1
	L2_cache_stats_breakdown[TEXTURE_ACC_R][HIT] = 0
	L2_cache_stats_breakdown[TEXTURE_ACC_R][HIT_RESERVED] = 0
	L2_cache_stats_breakdown[TEXTURE_ACC_R][MISS] = 0
	L2_cache_stats_breakdown[TEXTURE_ACC_R][RESERVATION_FAIL] = 0
	L2_cache_stats_breakdown[TEXTURE_ACC_R][SECTOR_MISS] = 0
	L2_cache_stats_breakdown[GLOBAL_ACC_W][HIT] = 209426
	L2_cache_stats_breakdown[GLOBAL_ACC_W][HIT_RESERVED] = 146
	L2_cache_stats_breakdown[GLOBAL_ACC_W][MISS] = 12790
	L2_cache_stats_breakdown[GLOBAL_ACC_W][RESERVATION_FAIL] = 0
	L2_cache_stats_breakdown[GLOBAL_ACC_W][SECTOR_MISS] = 178493
	L2_cache_stats_breakdown[LOCAL_ACC_W][HIT] = 0
	L2_cache_stats_breakdown[LOCAL_ACC_W][HIT_RESERVED] = 0
	L2_cache_stats_breakdown[LOCAL_ACC_W][MISS] = 0
	L2_cache_stats_breakdown[LOCAL_ACC_W][RESERVATION_FAIL] = 0
	L2_cache_stats_breakdown[LOCAL_ACC_W][SECTOR_MISS] = 0
	L2_cache_stats_breakdown[L1_WRBK_ACC][HIT] = 0
	L2_cache_stats_breakdown[L1_WRBK_ACC][HIT_RESERVED] = 0
	L2_cache_stats_breakdown[L1_WRBK_ACC][MISS] = 0
	L2_cache_stats_breakdown[L1_WRBK_ACC][RESERVATION_FAIL] = 0
	L2_cache_stats_breakdown[L1_WRBK_ACC][SECTOR_MISS] = 0
	L2_cache_stats_breakdown[L2_WRBK_ACC][HIT] = 0
	L2_cache_stats_breakdown[L2_WRBK_ACC][HIT_RESERVED] = 0
	L2_cache_stats_breakdown[L2_WRBK_ACC][MISS] = 0
	L2_cache_stats_breakdown[L2_WRBK_ACC][RESERVATION_FAIL] = 0
	L2_cache_stats_breakdown[L2_WRBK_ACC][SECTOR_MISS] = 0
	L2_cache_stats_breakdown[INST_ACC_R][HIT] = 244
	L2_cache_stats_breakdown[INST_ACC_R][HIT_RESERVED] = 36
	L2_cache_stats_breakdown[INST_ACC_R][MISS] = 5
	L2_cache_stats_breakdown[INST_ACC_R][RESERVATION_FAIL] = 319
	L2_cache_stats_breakdown[INST_ACC_R][SECTOR_MISS] = 15
	L2_cache_stats_breakdown[L1_WR_ALLOC_R][HIT] = 0
	L2_cache_stats_breakdown[L1_WR_ALLOC_R][HIT_RESERVED] = 0
	L2_cache_stats_breakdown[L1_WR_ALLOC_R][MISS] = 0
	L2_cache_stats_breakdown[L1_WR_ALLOC_R][RESERVATION_FAIL] = 0
	L2_cache_stats_breakdown[L1_WR_ALLOC_R][SECTOR_MISS] = 0
	L2_cache_stats_breakdown[L2_WR_ALLOC_R][HIT] = 0
	L2_cache_stats_breakdown[L2_WR_ALLOC_R][HIT_RESERVED] = 0
	L2_cache_stats_breakdown[L2_WR_ALLOC_R][MISS] = 0
	L2_cache_stats_breakdown[L2_WR_ALLOC_R][RESERVATION_FAIL] = 0
	L2_cache_stats_breakdown[L2_WR_ALLOC_R][SECTOR_MISS] = 0
	L2_cache_stats_breakdown[GLOBAL_ACC_R][TOTAL_ACCESS] = 1205468
	L2_cache_stats_breakdown[CONST_ACC_R][TOTAL_ACCESS] = 30
	L2_cache_stats_breakdown[GLOBAL_ACC_W][TOTAL_ACCESS] = 400855
	L2_cache_stats_breakdown[INST_ACC_R][TOTAL_ACCESS] = 300
L2_total_cache_reservation_fail_breakdown:
	L2_cache_stats_fail_breakdown[GLOBAL_ACC_R][MISS_QUEUE_FULL] = 52
	L2_cache_stats_fail_breakdown[CONST_ACC_R][MSHR_MERGE_ENRTY_FAIL] = 106
	L2_cache_stats_fail_breakdown[INST_ACC_R][MSHR_MERGE_ENRTY_FAIL] = 319
L2_cache_data_port_util = 0.345
L2_cache_fill_port_util = 0.044

icnt_total_pkts_mem_to_simt=1606653
icnt_total_pkts_simt_to_mem=1606413
LD_mem_lat_dist  0 0 0 0 0 0 0 0 0 0 0 0 0 0 0 0 0 0 0 0 0 0 0 0 0 0 0
ST_mem_lat_dist  0 0 0 0 0 0 0 0 0 0 0 0 0 0 0 0 0 0 0 0 0 0 0 0 0 0 0
----------------------------Interconnect-DETAILS--------------------------------
Class 0:
Packet latency average = 5.01193
	minimum = 5
	maximum = 7
Network latency average = 5.01193
	minimum = 5
	maximum = 7
Slowest packet = 3210439
Flit latency average = 5.01193
	minimum = 5
	maximum = 7
Slowest flit = 3210439
Fragmentation average = 0
	minimum = 0
	maximum = 0
Injected packet rate average = 0.0594793
	minimum = 0.0531665 (at node 0)
	maximum = 0.0695856 (at node 24)
Accepted packet rate average = 0.0594793
	minimum = 0.0531665 (at node 0)
	maximum = 0.0695856 (at node 24)
Injected flit rate average = 0.0594793
	minimum = 0.0531665 (at node 0)
	maximum = 0.0695856 (at node 24)
Accepted flit rate average= 0.0594793
	minimum = 0.0531665 (at node 0)
	maximum = 0.0695856 (at node 24)
Injected packet length average = 1
Accepted packet length average = 1
Total in-flight flits = 0 (0 measured)
====== Overall Traffic Statistics ======
====== Traffic class 0 ======
Packet latency average = 26.1698 (9 samples)
	minimum = 5 (9 samples)
	maximum = 170.889 (9 samples)
Network latency average = 24.1072 (9 samples)
	minimum = 5 (9 samples)
	maximum = 162.444 (9 samples)
Flit latency average = 24.1072 (9 samples)
	minimum = 5 (9 samples)
	maximum = 162.444 (9 samples)
Fragmentation average = 0 (9 samples)
	minimum = 0 (9 samples)
	maximum = 0 (9 samples)
Injected packet rate average = 0.177367 (9 samples)
	minimum = 0.142958 (9 samples)
	maximum = 0.257808 (9 samples)
Accepted packet rate average = 0.177367 (9 samples)
	minimum = 0.143167 (9 samples)
	maximum = 0.257102 (9 samples)
Injected flit rate average = 0.177367 (9 samples)
	minimum = 0.142958 (9 samples)
	maximum = 0.257808 (9 samples)
Accepted flit rate average = 0.177367 (9 samples)
	minimum = 0.143167 (9 samples)
	maximum = 0.257102 (9 samples)
Injected packet size average = 1 (9 samples)
Accepted packet size average = 1 (9 samples)
Hops average = 1 (9 samples)
----------------------------END-of-Interconnect-DETAILS-------------------------


gpgpu_simulation_time = 0 days, 0 hrs, 2 min, 52 sec (172 sec)
gpgpu_simulation_rate = 107994 (inst/sec)
gpgpu_simulation_rate = 1757 (cycle/sec)
gpgpu_silicon_slowdown = 398406x
GPGPU-Sim: synchronize waiting for inactive GPU simulation
GPGPU-Sim API: Stream Manager State
GPGPU-Sim: detected inactive GPU simulation thread
Kernel Executed 9 times
Processing time: 171397.078125 (ms)
Result stored in result.txt
GPGPU-Sim: *** exit detected ***
