

        *** GPGPU-Sim Simulator Version 4.0.0  [build gpgpu-sim_git-commit-90ec3399763d7c8512cfe7dc193473086c38ca38_modified_0.0] ***


GPGPU-Sim PTX: simulation mode 0 (can change with PTX_SIM_MODE_FUNC environment variable:
               1=functional simulation only, 0=detailed performance simulator)
GPGPU-Sim PTX: overriding embedded ptx with ptx file (PTX_SIM_USE_PTX_FILE is set)
GPGPU-Sim: Configuration options:

-save_embedded_ptx                      0 # saves ptx files embedded in binary as <n>.ptx
-keep                                   0 # keep intermediate files created by GPGPU-Sim when interfacing with external programs
-gpgpu_ptx_save_converted_ptxplus                    0 # Saved converted ptxplus to a file
-gpgpu_occupancy_sm_number                   20 # The SM number to pass to ptxas when getting register usage for computing GPU occupancy. This parameter is required in the config.
-ptx_opcode_latency_int      4,13,4,5,145,32 # Opcode latencies for integers <ADD,MAX,MUL,MAD,DIV,SHFL>Default 1,1,19,25,145,32
-ptx_opcode_latency_fp          4,13,4,5,39 # Opcode latencies for single precision floating points <ADD,MAX,MUL,MAD,DIV>Default 1,1,1,1,30
-ptx_opcode_latency_dp         8,19,8,8,330 # Opcode latencies for double precision floating points <ADD,MAX,MUL,MAD,DIV>Default 8,8,8,8,335
-ptx_opcode_latency_sfu                    8 # Opcode latencies for SFU instructionsDefault 8
-ptx_opcode_latency_tesnor                   64 # Opcode latencies for Tensor instructionsDefault 64
-ptx_opcode_initiation_int          1,2,2,1,8,4 # Opcode initiation intervals for integers <ADD,MAX,MUL,MAD,DIV,SHFL>Default 1,1,4,4,32,4
-ptx_opcode_initiation_fp            1,2,1,1,4 # Opcode initiation intervals for single precision floating points <ADD,MAX,MUL,MAD,DIV>Default 1,1,1,1,5
-ptx_opcode_initiation_dp         8,16,8,8,130 # Opcode initiation intervals for double precision floating points <ADD,MAX,MUL,MAD,DIV>Default 8,8,8,8,130
-ptx_opcode_initiation_sfu                    8 # Opcode initiation intervals for sfu instructionsDefault 8
-ptx_opcode_initiation_tensor                   64 # Opcode initiation intervals for tensor instructionsDefault 64
-cdp_latency         7200,8000,100,12000,1600 # CDP API latency <cudaStreamCreateWithFlags, cudaGetParameterBufferV2_init_perWarp, cudaGetParameterBufferV2_perKernel, cudaLaunchDeviceV2_init_perWarp, cudaLaunchDevicV2_perKernel>Default 7200,8000,100,12000,1600
-network_mode                           1 # Interconnection network mode
-inter_config_file   config_fermi_islip.icnt # Interconnection network config file
-icnt_in_buffer_limit                   64 # in_buffer_limit
-icnt_out_buffer_limit                   64 # out_buffer_limit
-icnt_subnets                           2 # subnets
-icnt_arbiter_algo                      1 # arbiter_algo
-icnt_verbose                           0 # inct_verbose
-icnt_grant_cycles                      1 # grant_cycles
-gpgpu_ptx_use_cuobjdump                    1 # Use cuobjdump to extract ptx and sass from binaries
-gpgpu_experimental_lib_support                    0 # Try to extract code from cuda libraries [Broken because of unknown cudaGetExportTable]
-checkpoint_option                      0 #  checkpointing flag (0 = no checkpoint)
-checkpoint_kernel                      1 #  checkpointing during execution of which kernel (1- 1st kernel)
-checkpoint_CTA                         0 #  checkpointing after # of CTA (< less than total CTA)
-resume_option                          0 #  resume flag (0 = no resume)
-resume_kernel                          0 #  Resume from which kernel (1= 1st kernel)
-resume_CTA                             0 #  resume from which CTA 
-checkpoint_CTA_t                       0 #  resume from which CTA 
-checkpoint_insn_Y                      0 #  resume from which CTA 
-gpgpu_ptx_convert_to_ptxplus                    0 # Convert SASS (native ISA) to ptxplus and run ptxplus
-gpgpu_ptx_force_max_capability                   20 # Force maximum compute capability
-gpgpu_ptx_inst_debug_to_file                    0 # Dump executed instructions' debug information to file
-gpgpu_ptx_inst_debug_file       inst_debug.txt # Executed instructions' debug output file
-gpgpu_ptx_inst_debug_thread_uid                    1 # Thread UID for executed instructions' debug output
-gpgpu_simd_model                       1 # 1 = post-dominator
-gpgpu_shader_core_pipeline              1536:32 # shader core pipeline config, i.e., {<nthread>:<warpsize>}
-gpgpu_tex_cache:l1  N:4:128:24,L:R:m:N:L,T:128:4,128:2 # per-shader L1 texture cache  (READ-ONLY) config  {<nsets>:<bsize>:<assoc>,<rep>:<wr>:<alloc>:<wr_alloc>,<mshr>:<N>:<merge>,<mq>:<rf>}
-gpgpu_const_cache:l1 N:64:64:2,L:R:f:N:L,S:2:32,4 # per-shader L1 constant memory cache  (READ-ONLY) config  {<nsets>:<bsize>:<assoc>,<rep>:<wr>:<alloc>:<wr_alloc>,<mshr>:<N>:<merge>,<mq>} 
-gpgpu_cache:il1     N:4:128:4,L:R:f:N:L,S:2:32,4 # shader L1 instruction cache config  {<nsets>:<bsize>:<assoc>,<rep>:<wr>:<alloc>:<wr_alloc>,<mshr>:<N>:<merge>,<mq>} 
-gpgpu_cache:dl1     N:32:128:4,L:L:m:N:H,S:64:8,8 # per-shader L1 data cache config  {<nsets>:<bsize>:<assoc>,<rep>:<wr>:<alloc>:<wr_alloc>,<mshr>:<N>:<merge>,<mq> | none}
-gpgpu_l1_banks                         1 # The number of L1 cache banks
-gpgpu_l1_banks_byte_interleaving                   32 # l1 banks byte interleaving granularity
-gpgpu_l1_banks_hashing_function                    0 # l1 banks hashing function
-gpgpu_l1_latency                      35 # L1 Hit Latency
-gpgpu_smem_latency                    26 # smem Latency
-gpgpu_cache:dl1PrefL1                 none # per-shader L1 data cache config  {<nsets>:<bsize>:<assoc>,<rep>:<wr>:<alloc>:<wr_alloc>,<mshr>:<N>:<merge>,<mq> | none}
-gpgpu_cache:dl1PrefShared                 none # per-shader L1 data cache config  {<nsets>:<bsize>:<assoc>,<rep>:<wr>:<alloc>:<wr_alloc>,<mshr>:<N>:<merge>,<mq> | none}
-gpgpu_gmem_skip_L1D                    0 # global memory access skip L1D cache (implements -Xptxas -dlcm=cg, default=no skip)
-gpgpu_perfect_mem                      0 # enable perfect memory mode (no cache miss)
-n_regfile_gating_group                    4 # group of lanes that should be read/written together)
-gpgpu_clock_gated_reg_file                    0 # enable clock gated reg file for power calculations
-gpgpu_clock_gated_lanes                    0 # enable clock gated lanes for power calculations
-gpgpu_shader_registers                32768 # Number of registers per shader core. Limits number of concurrent CTAs. (default 8192)
-gpgpu_registers_per_block                 8192 # Maximum number of registers per CTA. (default 8192)
-gpgpu_ignore_resources_limitation                    0 # gpgpu_ignore_resources_limitation (default 0)
-gpgpu_shader_cta                       8 # Maximum number of concurrent CTAs in shader (default 8)
-gpgpu_num_cta_barriers                   16 # Maximum number of named barriers per CTA (default 16)
-gpgpu_n_clusters                      15 # number of processing clusters
-gpgpu_n_cores_per_cluster                    1 # number of simd cores per cluster
-gpgpu_n_cluster_ejection_buffer_size                   32 # number of packets in ejection buffer
-gpgpu_n_ldst_response_buffer_size                    2 # number of response packets in ld/st unit ejection buffer
-gpgpu_shmem_per_block                49152 # Size of shared memory per thread block or CTA (default 48kB)
-gpgpu_shmem_size                   49152 # Size of shared memory per shader core (default 16kB)
-gpgpu_adaptive_cache_config                    0 # adaptive_cache_config
-gpgpu_shmem_sizeDefault                49152 # Size of shared memory per shader core (default 16kB)
-gpgpu_shmem_size_PrefL1                16384 # Size of shared memory per shader core (default 16kB)
-gpgpu_shmem_size_PrefShared                16384 # Size of shared memory per shader core (default 16kB)
-gpgpu_shmem_num_banks                   32 # Number of banks in the shared memory in each shader core (default 16)
-gpgpu_shmem_limited_broadcast                    0 # Limit shared memory to do one broadcast per cycle (default on)
-gpgpu_shmem_warp_parts                    1 # Number of portions a warp is divided into for shared memory bank conflict check 
-gpgpu_mem_unit_ports                    1 # The number of memory transactions allowed per core cycle
-gpgpu_shmem_warp_parts                    1 # Number of portions a warp is divided into for shared memory bank conflict check 
-gpgpu_warpdistro_shader                   -1 # Specify which shader core to collect the warp size distribution from
-gpgpu_warp_issue_shader                    0 # Specify which shader core to collect the warp issue distribution from
-gpgpu_local_mem_map                    1 # Mapping from local memory space address to simulated GPU physical address space (default = enabled)
-gpgpu_num_reg_banks                   16 # Number of register banks (default = 8)
-gpgpu_reg_bank_use_warp_id                    0 # Use warp ID in mapping registers to banks (default = off)
-gpgpu_sub_core_model                    0 # Sub Core Volta/Pascal model (default = off)
-gpgpu_enable_specialized_operand_collector                    1 # enable_specialized_operand_collector
-gpgpu_operand_collector_num_units_sp                    6 # number of collector units (default = 4)
-gpgpu_operand_collector_num_units_dp                    0 # number of collector units (default = 0)
-gpgpu_operand_collector_num_units_sfu                    8 # number of collector units (default = 4)
-gpgpu_operand_collector_num_units_int                    0 # number of collector units (default = 0)
-gpgpu_operand_collector_num_units_tensor_core                    4 # number of collector units (default = 4)
-gpgpu_operand_collector_num_units_mem                    2 # number of collector units (default = 2)
-gpgpu_operand_collector_num_units_gen                    0 # number of collector units (default = 0)
-gpgpu_operand_collector_num_in_ports_sp                    2 # number of collector unit in ports (default = 1)
-gpgpu_operand_collector_num_in_ports_dp                    0 # number of collector unit in ports (default = 0)
-gpgpu_operand_collector_num_in_ports_sfu                    1 # number of collector unit in ports (default = 1)
-gpgpu_operand_collector_num_in_ports_int                    0 # number of collector unit in ports (default = 0)
-gpgpu_operand_collector_num_in_ports_tensor_core                    1 # number of collector unit in ports (default = 1)
-gpgpu_operand_collector_num_in_ports_mem                    1 # number of collector unit in ports (default = 1)
-gpgpu_operand_collector_num_in_ports_gen                    0 # number of collector unit in ports (default = 0)
-gpgpu_operand_collector_num_out_ports_sp                    2 # number of collector unit in ports (default = 1)
-gpgpu_operand_collector_num_out_ports_dp                    0 # number of collector unit in ports (default = 0)
-gpgpu_operand_collector_num_out_ports_sfu                    1 # number of collector unit in ports (default = 1)
-gpgpu_operand_collector_num_out_ports_int                    0 # number of collector unit in ports (default = 0)
-gpgpu_operand_collector_num_out_ports_tensor_core                    1 # number of collector unit in ports (default = 1)
-gpgpu_operand_collector_num_out_ports_mem                    1 # number of collector unit in ports (default = 1)
-gpgpu_operand_collector_num_out_ports_gen                    0 # number of collector unit in ports (default = 0)
-gpgpu_coalesce_arch                   20 # Coalescing arch (GT200 = 13, Fermi = 20)
-gpgpu_num_sched_per_core                    2 # Number of warp schedulers per core
-gpgpu_max_insn_issue_per_warp                    1 # Max number of instructions that can be issued per warp in one cycle by scheduler (either 1 or 2)
-gpgpu_dual_issue_diff_exec_units                    1 # should dual issue use two different execution unit resources (Default = 1)
-gpgpu_simt_core_sim_order                    1 # Select the simulation order of cores in a cluster (0=Fix, 1=Round-Robin)
-gpgpu_pipeline_widths 2,0,0,1,1,2,0,0,1,1,2 # Pipeline widths ID_OC_SP,ID_OC_DP,ID_OC_INT,ID_OC_SFU,ID_OC_MEM,OC_EX_SP,OC_EX_DP,OC_EX_INT,OC_EX_SFU,OC_EX_MEM,EX_WB,ID_OC_TENSOR_CORE,OC_EX_TENSOR_CORE
-gpgpu_tensor_core_avail                    0 # Tensor Core Available (default=0)
-gpgpu_num_sp_units                     2 # Number of SP units (default=1)
-gpgpu_num_dp_units                     0 # Number of DP units (default=0)
-gpgpu_num_int_units                    0 # Number of INT units (default=0)
-gpgpu_num_sfu_units                    1 # Number of SF units (default=1)
-gpgpu_num_tensor_core_units                    0 # Number of tensor_core units (default=1)
-gpgpu_num_mem_units                    1 # Number if ldst units (default=1) WARNING: not hooked up to anything
-gpgpu_scheduler                      gto # Scheduler configuration: < lrr | gto | two_level_active > If two_level_active:<num_active_warps>:<inner_prioritization>:<outer_prioritization>For complete list of prioritization values see shader.h enum scheduler_prioritization_typeDefault: gto
-gpgpu_concurrent_kernel_sm                    0 # Support concurrent kernels on a SM (default = disabled)
-gpgpu_perfect_inst_const_cache                    0 # perfect inst and const cache mode, so all inst and const hits in the cache(default = disabled)
-gpgpu_inst_fetch_throughput                    1 # the number of fetched intruction per warp each cycle
-gpgpu_reg_file_port_throughput                    1 # the number ports of the register file
-specialized_unit_1         0,4,4,4,4,BRA # specialized unit config {<enabled>,<num_units>:<latency>:<initiation>,<ID_OC_SPEC>:<OC_EX_SPEC>,<NAME>}
-specialized_unit_2         0,4,4,4,4,BRA # specialized unit config {<enabled>,<num_units>:<latency>:<initiation>,<ID_OC_SPEC>:<OC_EX_SPEC>,<NAME>}
-specialized_unit_3         0,4,4,4,4,BRA # specialized unit config {<enabled>,<num_units>:<latency>:<initiation>,<ID_OC_SPEC>:<OC_EX_SPEC>,<NAME>}
-specialized_unit_4         0,4,4,4,4,BRA # specialized unit config {<enabled>,<num_units>:<latency>:<initiation>,<ID_OC_SPEC>:<OC_EX_SPEC>,<NAME>}
-specialized_unit_5         0,4,4,4,4,BRA # specialized unit config {<enabled>,<num_units>:<latency>:<initiation>,<ID_OC_SPEC>:<OC_EX_SPEC>,<NAME>}
-specialized_unit_6         0,4,4,4,4,BRA # specialized unit config {<enabled>,<num_units>:<latency>:<initiation>,<ID_OC_SPEC>:<OC_EX_SPEC>,<NAME>}
-specialized_unit_7         0,4,4,4,4,BRA # specialized unit config {<enabled>,<num_units>:<latency>:<initiation>,<ID_OC_SPEC>:<OC_EX_SPEC>,<NAME>}
-specialized_unit_8         0,4,4,4,4,BRA # specialized unit config {<enabled>,<num_units>:<latency>:<initiation>,<ID_OC_SPEC>:<OC_EX_SPEC>,<NAME>}
-gpgpu_perf_sim_memcpy                    1 # Fill the L2 cache on memcpy
-gpgpu_simple_dram_model                    0 # simple_dram_model with fixed latency and BW
-gpgpu_dram_scheduler                    1 # 0 = fifo, 1 = FR-FCFS (defaul)
-gpgpu_dram_partition_queues          64:64:64:64 # i2$:$2d:d2$:$2i
-l2_ideal                               0 # Use a ideal L2 cache that always hit
-gpgpu_cache:dl2     S:64:128:8,L:B:m:L:L,A:256:4,4:0,32 # unified banked L2 data cache config  {<nsets>:<bsize>:<assoc>,<rep>:<wr>:<alloc>:<wr_alloc>,<mshr>:<N>:<merge>,<mq>}
-gpgpu_cache:dl2_texture_only                    0 # L2 cache used for texture only
-gpgpu_n_mem                            6 # number of memory modules (e.g. memory controllers) in gpu
-gpgpu_n_sub_partition_per_mchannel                    2 # number of memory subpartition in each memory module
-gpgpu_n_mem_per_ctrlr                    2 # number of memory chips per memory controller
-gpgpu_memlatency_stat                   14 # track and display latency statistics 0x2 enables MC, 0x4 enables queue logs
-gpgpu_frfcfs_dram_sched_queue_size                   64 # 0 = unlimited (default); # entries per chip
-gpgpu_dram_return_queue_size                  116 # 0 = unlimited (default); # entries per chip
-gpgpu_dram_buswidth                    4 # default = 4 bytes (8 bytes per cycle at DDR)
-gpgpu_dram_burst_length                    8 # Burst length of each DRAM request (default = 4 data bus cycle)
-dram_data_command_freq_ratio                    4 # Frequency ratio between DRAM data bus and command bus (default = 2 times, i.e. DDR)
-gpgpu_dram_timing_opt nbk=16:CCD=2:RRD=6:RCD=12:RAS=28:RP=12:RC=40: CL=12:WL=4:CDLR=5:WR=12:nbkgrp=4:CCDL=3:RTPL=2 # DRAM timing parameters = {nbk:tCCD:tRRD:tRCD:tRAS:tRP:tRC:CL:WL:tCDLR:tWR:nbkgrp:tCCDL:tRTPL}
-gpgpu_l2_rop_latency                  120 # ROP queue latency (default 85)
-dram_latency                         100 # DRAM latency (default 30)
-dram_dual_bus_interface                    0 # dual_bus_interface (default = 0) 
-dram_bnk_indexing_policy                    0 # dram_bnk_indexing_policy (0 = normal indexing, 1 = Xoring with the higher bits) (Default = 0)
-dram_bnkgrp_indexing_policy                    1 # dram_bnkgrp_indexing_policy (0 = take higher bits, 1 = take lower bits) (Default = 0)
-dram_seperate_write_queue_enable                    0 # Seperate_Write_Queue_Enable
-dram_write_queue_size             32:28:16 # Write_Queue_Size
-dram_elimnate_rw_turnaround                    0 # elimnate_rw_turnaround i.e set tWTR and tRTW = 0
-icnt_flit_size                        40 # icnt_flit_size
-gpgpu_mem_addr_mapping dramid@8;00000000.00000000.00000000.00000000.0000RRRR.RRRRRRRR.BBBCCCCB.CCSSSSSS # mapping memory address to dram model {dramid@<start bit>;<memory address map>}
-gpgpu_mem_addr_test                    0 # run sweep test to check address mapping for aliased address
-gpgpu_mem_address_mask                    1 # 0 = old addressing mask, 1 = new addressing mask, 2 = new add. mask + flipped bank sel and chip sel bits
-gpgpu_memory_partition_indexing                    0 # 0 = no indexing, 1 = bitwise xoring, 2 = IPoly, 3 = custom indexing
-gpuwattch_xml_file  gpuwattch_gtx480.xml # GPUWattch XML file
-power_simulation_enabled                    1 # Turn on power simulator (1=On, 0=Off)
-power_per_cycle_dump                    0 # Dump detailed power output each cycle
-power_trace_enabled                    0 # produce a file for the power trace (1=On, 0=Off)
-power_trace_zlevel                     6 # Compression level of the power trace output log (0=no comp, 9=highest)
-steady_power_levels_enabled                    0 # produce a file for the steady power levels (1=On, 0=Off)
-steady_state_definition                  8:4 # allowed deviation:number of samples
-gpgpu_max_cycle                        0 # terminates gpu simulation early (0 = no limit)
-gpgpu_max_insn                 100000000 # terminates gpu simulation early (0 = no limit)
-gpgpu_max_cta                          0 # terminates gpu simulation early (0 = no limit)
-gpgpu_max_completed_cta                    0 # terminates gpu simulation early (0 = no limit)
-gpgpu_runtime_stat                   500 # display runtime statistics such as dram utilization {<freq>:<flag>}
-liveness_message_freq                    1 # Minimum number of seconds between simulation liveness messages (0 = always print)
-gpgpu_compute_capability_major                    2 # Major compute capability version number
-gpgpu_compute_capability_minor                    0 # Minor compute capability version number
-gpgpu_flush_l1_cache                    1 # Flush L1 cache at the end of each kernel call
-gpgpu_flush_l2_cache                    0 # Flush L2 cache at the end of each kernel call
-gpgpu_deadlock_detect                    1 # Stop the simulation at deadlock (1=on (default), 0=off)
-gpgpu_ptx_instruction_classification                    0 # if enabled will classify ptx instruction types per kernel (Max 255 kernels now)
-gpgpu_ptx_sim_mode                     0 # Select between Performance (default) or Functional simulation (1)
-gpgpu_clock_domains 700.0:700.0:700.0:924.0 # Clock Domain Frequencies in MhZ {<Core Clock>:<ICNT Clock>:<L2 Clock>:<DRAM Clock>}
-gpgpu_max_concurrent_kernel                    8 # maximum kernels that can run concurrently on GPU
-gpgpu_cflog_interval                    0 # Interval between each snapshot in control flow logger
-visualizer_enabled                     0 # Turn on visualizer output (1=On, 0=Off)
-visualizer_outputfile                 NULL # Specifies the output log file for visualizer
-visualizer_zlevel                      6 # Compression level of the visualizer output log (0=no comp, 9=highest)
-gpgpu_stack_size_limit                 1024 # GPU thread stack size
-gpgpu_heap_size_limit              8388608 # GPU malloc heap size 
-gpgpu_runtime_sync_depth_limit                    2 # GPU device runtime synchronize depth
-gpgpu_runtime_pending_launch_count_limit                 2048 # GPU device runtime pending launch count
-trace_enabled                          0 # Turn on traces
-trace_components                    none # comma seperated list of traces to enable. Complete list found in trace_streams.tup. Default none
-trace_sampling_core                    0 # The core which is printed using CORE_DPRINTF. Default 0
-trace_sampling_memory_partition                   -1 # The memory partition which is printed using MEMPART_DPRINTF. Default -1 (i.e. all)
-enable_ptx_file_line_stats                    1 # Turn on PTX source line statistic profiling. (1 = On)
-ptx_line_stats_filename gpgpu_inst_stats.txt # Output file for PTX source line statistics.
-gpgpu_kernel_launch_latency                    0 # Kernel launch latency in cycles. Default: 0
-gpgpu_cdp_enabled                      0 # Turn on CDP
-gpgpu_TB_launch_latency                    0 # thread block launch latency in cycles. Default: 0
DRAM Timing Options:
nbk                                    16 # number of banks
CCD                                     2 # column to column delay
RRD                                     6 # minimal delay between activation of rows in different banks
RCD                                    12 # row to column delay
RAS                                    28 # time needed to activate row
RP                                     12 # time needed to precharge (deactivate) row
RC                                     40 # row cycle time
CDLR                                    5 # switching from write to read (changes tWTR)
WR                                     12 # last data-in to row precharge
CL                                     12 # CAS latency
WL                                      4 # Write latency
nbkgrp                                  4 # number of bank groups
CCDL                                    3 # column to column delay between accesses to different bank groups
RTPL                                    2 # read to precharge delay between accesses to different bank groups
Total number of memory sub partition = 12
addr_dec_mask[CHIP]  = 0000000000000000 	high:64 low:0
addr_dec_mask[BK]    = 000000000000e100 	high:16 low:8
addr_dec_mask[ROW]   = 000000000fff0000 	high:28 low:16
addr_dec_mask[COL]   = 0000000000001eff 	high:13 low:0
addr_dec_mask[BURST] = 000000000000003f 	high:6 low:0
sub_partition_id_mask = 0000000000000100
GPGPU-Sim uArch: clock freqs: 700000000.000000:700000000.000000:700000000.000000:924000000.000000
GPGPU-Sim uArch: clock periods: 0.00000000142857142857:0.00000000142857142857:0.00000000142857142857:0.00000000108225108225
*** Initializing Memory Statistics ***
GPGPU-Sim uArch: interconnect node map (shaderID+MemID to icntID)
GPGPU-Sim uArch: Memory nodes ID start from index: 15
GPGPU-Sim uArch:    0   1   2   3   4
GPGPU-Sim uArch:    5   6   7   8   9
GPGPU-Sim uArch:   10  11  12  13  14
GPGPU-Sim uArch:   15  16  17  18  19
GPGPU-Sim uArch:   20  21  22  23  24
GPGPU-Sim uArch:   25  26
GPGPU-Sim uArch: interconnect node reverse map (icntID to shaderID+MemID)
GPGPU-Sim uArch: Memory nodes start from ID: 15
GPGPU-Sim uArch:    0   1   2   3   4
GPGPU-Sim uArch:    5   6   7   8   9
GPGPU-Sim uArch:   10  11  12  13  14
GPGPU-Sim uArch:   15  16  17  18  19
GPGPU-Sim uArch:   20  21  22  23  24
GPGPU-Sim uArch:   25  26
3ea51ee5200eab1ccf8f22797b4d83ed  /code/rodinia/LUD/lud-rodinia-3.1
Extracting PTX file and ptxas options    1: lud-rodinia-3.1.sm_30.ptx -arch=sm_30
Extracting PTX file and ptxas options    2: lud-rodinia-3.2.sm_35.ptx -arch=sm_35
Extracting PTX file and ptxas options    3: lud-rodinia-3.3.sm_50.ptx -arch=sm_50
Extracting PTX file and ptxas options    4: lud-rodinia-3.4.sm_60.ptx -arch=sm_60
Extracting PTX file and ptxas options    5: lud-rodinia-3.5.sm_62.ptx -arch=sm_62
Extracting PTX file and ptxas options    6: lud-rodinia-3.6.sm_30.ptx -arch=sm_30
Extracting PTX file and ptxas options    7: lud-rodinia-3.7.sm_35.ptx -arch=sm_35
Extracting PTX file and ptxas options    8: lud-rodinia-3.8.sm_50.ptx -arch=sm_50
Extracting PTX file and ptxas options    9: lud-rodinia-3.9.sm_60.ptx -arch=sm_60
Extracting PTX file and ptxas options   10: lud-rodinia-3.10.sm_62.ptx -arch=sm_62
GPGPU-Sim uArch: performance model initialization complete.
self exe links to: /code/rodinia/LUD/lud-rodinia-3.1
self exe links to: /code/rodinia/LUD/lud-rodinia-3.1
10.1
GPGPU-Sim PTX: __cudaRegisterFatBinary, fat_cubin_handle = 1, filename=default
self exe links to: /code/rodinia/LUD/lud-rodinia-3.1
Running md5sum using "md5sum /code/rodinia/LUD/lud-rodinia-3.1 "
self exe links to: /code/rodinia/LUD/lud-rodinia-3.1
Extracting specific PTX file named lud-rodinia-3.1.sm_30.ptx 
Extracting specific PTX file named lud-rodinia-3.2.sm_35.ptx 
Extracting specific PTX file named lud-rodinia-3.3.sm_50.ptx 
Extracting specific PTX file named lud-rodinia-3.4.sm_60.ptx 
Extracting specific PTX file named lud-rodinia-3.5.sm_62.ptx 
Extracting specific PTX file named lud-rodinia-3.6.sm_30.ptx 
Extracting specific PTX file named lud-rodinia-3.7.sm_35.ptx 
Extracting specific PTX file named lud-rodinia-3.8.sm_50.ptx 
Extracting specific PTX file named lud-rodinia-3.9.sm_60.ptx 
Extracting specific PTX file named lud-rodinia-3.10.sm_62.ptx 
self exe links to: /code/rodinia/LUD/lud-rodinia-3.1
self exe links to: /code/rodinia/LUD/lud-rodinia-3.1
10.1
GPGPU-Sim PTX: __cudaRegisterFatBinary, fat_cubin_handle = 2, filename=default
GPGPU-Sim PTX: __cudaRegisterFunction _Z12lud_internalPfii : hostFun 0x0x401e50, fat_cubin_handle = 2
GPGPU-Sim PTX: Parsing lud-rodinia-3.1.sm_30.ptx
GPGPU-Sim PTX: finished parsing EMBEDDED .ptx file lud-rodinia-3.1.sm_30.ptx
GPGPU-Sim PTX: Parsing lud-rodinia-3.6.sm_30.ptx
GPGPU-Sim PTX: allocating shared region for "_ZZ12lud_diagonalPfiiE6shadow" from 0x0 to 0x400 (shared memory space)
GPGPU-Sim PTX: instruction assembly for function '_Z12lud_diagonalPfii'...   done.
GPGPU-Sim PTX: allocating shared region for "_ZZ13lud_perimeterPfiiE3dia" from 0x0 to 0x400 (shared memory space)
GPGPU-Sim PTX: allocating shared region for "_ZZ13lud_perimeterPfiiE8peri_row" from 0x400 to 0x800 (shared memory space)
GPGPU-Sim PTX: allocating shared region for "_ZZ13lud_perimeterPfiiE8peri_col" from 0x800 to 0xc00 (shared memory space)
GPGPU-Sim PTX: instruction assembly for function '_Z13lud_perimeterPfii'...   done.
GPGPU-Sim PTX: allocating shared region for "_ZZ12lud_internalPfiiE8peri_row" from 0x0 to 0x400 (shared memory space)
GPGPU-Sim PTX: allocating shared region for "_ZZ12lud_internalPfiiE8peri_col" from 0x400 to 0x800 (shared memory space)
GPGPU-Sim PTX: instruction assembly for function '_Z12lud_internalPfii'...   done.
GPGPU-Sim PTX: finished parsing EMBEDDED .ptx file lud-rodinia-3.6.sm_30.ptx
GPGPU-Sim PTX: Parsing lud-rodinia-3.2.sm_35.ptx
GPGPU-Sim PTX: finished parsing EMBEDDED .ptx file lud-rodinia-3.2.sm_35.ptx
GPGPU-Sim PTX: Parsing lud-rodinia-3.7.sm_35.ptx
GPGPU-Sim PTX: Warning %p0 was declared previous at lud-rodinia-3.6.sm_30.ptx:27 skipping new declaration
GPGPU-Sim PTX: Warning %p1 was declared previous at lud-rodinia-3.6.sm_30.ptx:27 skipping new declaration
GPGPU-Sim PTX: Warning %p2 was declared previous at lud-rodinia-3.6.sm_30.ptx:27 skipping new declaration
GPGPU-Sim PTX: Warning %p3 was declared previous at lud-rodinia-3.6.sm_30.ptx:27 skipping new declaration
GPGPU-Sim PTX: Warning %p4 was declared previous at lud-rodinia-3.6.sm_30.ptx:27 skipping new declaration
GPGPU-Sim PTX: Warning %p5 was declared previous at lud-rodinia-3.6.sm_30.ptx:27 skipping new declaration
GPGPU-Sim PTX: Warning %p6 was declared previous at lud-rodinia-3.6.sm_30.ptx:27 skipping new declaration
GPGPU-Sim PTX: Warning %p7 was declared previous at lud-rodinia-3.6.sm_30.ptx:27 skipping new declaration
GPGPU-Sim PTX: Warning %p8 was declared previous at lud-rodinia-3.6.sm_30.ptx:27 skipping new declaration
GPGPU-Sim PTX: Warning %p9 was declared previous at lud-rodinia-3.6.sm_30.ptx:27 skipping new declaration
GPGPU-Sim PTX: Warning %f0 was declared previous at lud-rodinia-3.6.sm_30.ptx:28 skipping new declaration
GPGPU-Sim PTX: Warning %f1 was declared previous at lud-rodinia-3.6.sm_30.ptx:28 skipping new declaration
GPGPU-Sim PTX: Warning %f2 was declared previous at lud-rodinia-3.6.sm_30.ptx:28 skipping new declaration
GPGPU-Sim PTX: Warning %f3 was declared previous at lud-rodinia-3.6.sm_30.ptx:28 skipping new declaration
GPGPU-Sim PTX: Warning %f4 was declared previous at lud-rodinia-3.6.sm_30.ptx:28 skipping new declaration
GPGPU-Sim PTX: Warning %f5 was declared previous at lud-rodinia-3.6.sm_30.ptx:28 skipping new declaration
GPGPU-Sim PTX: Warning %f6 was declared previous at lud-rodinia-3.6.sm_30.ptx:28 skipping new declaration
GPGPU-Sim PTX: Warning %f7 was declared previous at lud-rodinia-3.6.sm_30.ptx:28 skipping new declaration
GPGPU-Sim PTX: Warning %f8 was declared previous at lud-rodinia-3.6.sm_30.ptx:28 skipping new declaration
GPGPU-Sim PTX: Warning %f9 was declared previous at lud-rodinia-3.6.sm_30.ptx:28 skipping new declaration
GPGPU-Sim PTX: Warning %f10 was declared previous at lud-rodinia-3.6.sm_30.ptx:28 skipping new declaration
GPGPU-Sim PTX: Warning %f11 was declared previous at lud-rodinia-3.6.sm_30.ptx:28 skipping new declaration
GPGPU-Sim PTX: Warning %f12 was declared previous at lud-rodinia-3.6.sm_30.ptx:28 skipping new declaration
GPGPU-Sim PTX: Warning %f13 was declared previous at lud-rodinia-3.6.sm_30.ptx:28 skipping new declaration
GPGPU-Sim PTX: Warning %f14 was declared previous at lud-rodinia-3.6.sm_30.ptx:28 skipping new declaration
GPGPU-Sim PTX: Warning %f15 was declared previous at lud-rodinia-3.6.sm_30.ptx:28 skipping new declaration
GPGPU-Sim PTX: Warning %f16 was declared previous at lud-rodinia-3.6.sm_30.ptx:28 skipping new declaration
GPGPU-Sim PTX: Warning %f17 was declared previous at lud-rodinia-3.6.sm_30.ptx:28 skipping new declaration
GPGPU-Sim PTX: Warning %f18 was declared previous at lud-rodinia-3.6.sm_30.ptx:28 skipping new declaration
GPGPU-Sim PTX: Warning %f19 was declared previous at lud-rodinia-3.6.sm_30.ptx:28 skipping new declaration
GPGPU-Sim PTX: Warning %f20 was declared previous at lud-rodinia-3.6.sm_30.ptx:28 skipping new declaration
GPGPU-Sim PTX: Warning %f21 was declared previous at lud-rodinia-3.6.sm_30.ptx:28 skipping new declaration
GPGPU-Sim PTX: Warning %f22 was declared previous at lud-rodinia-3.6.sm_30.ptx:28 skipping new declaration
GPGPU-Sim PTX: Warning %f23 was declared previous at lud-rodinia-3.6.sm_30.ptx:28 skipping new declaration
GPGPU-Sim PTX: Warning %f24 was declared previous at lud-rodinia-3.6.sm_30.ptx:28 skipping new declaration
GPGPU-Sim PTX: Warning %f25 was declared previous at lud-rodinia-3.6.sm_30.ptx:28 skipping new declaration
GPGPU-Sim PTX: Warning %f26 was declared previous at lud-rodinia-3.6.sm_30.ptx:28 skipping new declaration
GPGPU-Sim PTX: Warning %f27 was declared previous at lud-rodinia-3.6.sm_30.ptx:28 skipping new declaration
GPGPU-Sim PTX: Warning %f28 was declared previous at lud-rodinia-3.6.sm_30.ptx:28 skipping new declaration
GPGPU-Sim PTX: Warning %f29 was declared previous at lud-rodinia-3.6.sm_30.ptx:28 skipping new declaration
GPGPU-Sim PTX: Warning %f30 was declared previous at lud-rodinia-3.6.sm_30.ptx:28 skipping new declaration
GPGPU-Sim PTX: Warning %f31 was declared previous at lud-rodinia-3.6.sm_30.ptx:28 skipping new declaration
GPGPU-Sim PTX: Warning %f32 was declared previous at lud-rodinia-3.6.sm_30.ptx:28 skipping new declaration
GPGPU-Sim PTX: Warning %f33 was declared previous at lud-rodinia-3.6.sm_30.ptx:28 skipping new declaration
GPGPU-Sim PTX: Warning %f34 was declared previous at lud-rodinia-3.6.sm_30.ptx:28 skipping new declaration
GPGPU-Sim PTX: Warning %f35 was declared previous at lud-rodinia-3.6.sm_30.ptx:28 skipping new declaration
GPGPU-Sim PTX: Warning %f36 was declared previous at lud-rodinia-3.6.sm_30.ptx:28 skipping new declaration
GPGPU-Sim PTX: Warning %f37 was declared previous at lud-rodinia-3.6.sm_30.ptx:28 skipping new declaration
GPGPU-Sim PTX: Warning %f38 was declared previous at lud-rodinia-3.6.sm_30.ptx:28 skipping new declaration
GPGPU-Sim PTX: Warning %f39 was declared previous at lud-rodinia-3.6.sm_30.ptx:28 skipping new declaration
GPGPU-Sim PTX: Warning %f40 was declared previous at lud-rodinia-3.6.sm_30.ptx:28 skipping new declaration
GPGPU-Sim PTX: Warning %f41 was declared previous at lud-rodinia-3.6.sm_30.ptx:28 skipping new declaration
GPGPU-Sim PTX: Warning %f42 was declared previous at lud-rodinia-3.6.sm_30.ptx:28 skipping new declaration
GPGPU-Sim PTX: Warning %f43 was declared previous at lud-rodinia-3.6.sm_30.ptx:28 skipping new declaration
GPGPU-Sim PTX: Warning %f44 was declared previous at lud-rodinia-3.6.sm_30.ptx:28 skipping new declaration
GPGPU-Sim PTX: Warning %f45 was declared previous at lud-rodinia-3.6.sm_30.ptx:28 skipping new declaration
GPGPU-Sim PTX: Warning %f46 was declared previous at lud-rodinia-3.6.sm_30.ptx:28 skipping new declaration
GPGPU-Sim PTX: Warning %f47 was declared previous at lud-rodinia-3.6.sm_30.ptx:28 skipping new declaration
GPGPU-Sim PTX: Warning %f48 was declared previous at lud-rodinia-3.6.sm_30.ptx:28 skipping new declaration
GPGPU-Sim PTX: Warning %f49 was declared previous at lud-rodinia-3.6.sm_30.ptx:28 skipping new declaration
GPGPU-Sim PTX: Warning %r0 was declared previous at lud-rodinia-3.6.sm_30.ptx:29 skipping new declaration
GPGPU-Sim PTX: Warning %r1 was declared previous at lud-rodinia-3.6.sm_30.ptx:29 skipping new declaration
GPGPU-Sim PTX: Warning %r2 was declared previous at lud-rodinia-3.6.sm_30.ptx:29 skipping new declaration
GPGPU-Sim PTX: Warning %r3 was declared previous at lud-rodinia-3.6.sm_30.ptx:29 skipping new declaration
GPGPU-Sim PTX: Warning %r4 was declared previous at lud-rodinia-3.6.sm_30.ptx:29 skipping new declaration
GPGPU-Sim PTX: Warning %r5 was declared previous at lud-rodinia-3.6.sm_30.ptx:29 skipping new declaration
GPGPU-Sim PTX: Warning %r6 was declared previous at lud-rodinia-3.6.sm_30.ptx:29 skipping new declaration
GPGPU-Sim PTX: Warning %r7 was declared previous at lud-rodinia-3.6.sm_30.ptx:29 skipping new declaration
GPGPU-Sim PTX: Warning %r8 was declared previous at lud-rodinia-3.6.sm_30.ptx:29 skipping new declaration
GPGPU-Sim PTX: Warning %r9 was declared previous at lud-rodinia-3.6.sm_30.ptx:29 skipping new declaration
GPGPU-Sim PTX: Warning %r10 was declared previous at lud-rodinia-3.6.sm_30.ptx:29 skipping new declaration
GPGPU-Sim PTX: Warning %r11 was declared previous at lud-rodinia-3.6.sm_30.ptx:29 skipping new declaration
GPGPU-Sim PTX: Warning %r12 was declared previous at lud-rodinia-3.6.sm_30.ptx:29 skipping new declaration
GPGPU-Sim PTX: Warning %r13 was declared previous at lud-rodinia-3.6.sm_30.ptx:29 skipping new declaration
GPGPU-Sim PTX: Warning %r14 was declared previous at lud-rodinia-3.6.sm_30.ptx:29 skipping new declaration
GPGPU-Sim PTX: Warning %r15 was declared previous at lud-rodinia-3.6.sm_30.ptx:29 skipping new declaration
GPGPU-Sim PTX: Warning %r16 was declared previous at lud-rodinia-3.6.sm_30.ptx:29 skipping new declaration
GPGPU-Sim PTX: Warning %r17 was declared previous at lud-rodinia-3.6.sm_30.ptx:29 skipping new declaration
GPGPU-Sim PTX: Warning %r18 was declared previous at lud-rodinia-3.6.sm_30.ptx:29 skipping new declaration
GPGPU-Sim PTX: Warning %r19 was declared previous at lud-rodinia-3.6.sm_30.ptx:29 skipping new declaration
GPGPU-Sim PTX: Warning %r20 was declared previous at lud-rodinia-3.6.sm_30.ptx:29 skipping new declaration
GPGPU-Sim PTX: Warning %r21 was declared previous at lud-rodinia-3.6.sm_30.ptx:29 skipping new declaration
GPGPU-Sim PTX: Warning %r22 was declared previous at lud-rodinia-3.6.sm_30.ptx:29 skipping new declaration
GPGPU-Sim PTX: Warning %r23 was declared previous at lud-rodinia-3.6.sm_30.ptx:29 skipping new declaration
GPGPU-Sim PTX: Warning %r24 was declared previous at lud-rodinia-3.6.sm_30.ptx:29 skipping new declaration
GPGPU-Sim PTX: Warning %r25 was declared previous at lud-rodinia-3.6.sm_30.ptx:29 skipping new declaration
GPGPU-Sim PTX: Warning %r26 was declared previous at lud-rodinia-3.6.sm_30.ptx:29 skipping new declaration
GPGPU-Sim PTX: Warning %r27 was declared previous at lud-rodinia-3.6.sm_30.ptx:29 skipping new declaration
GPGPU-Sim PTX: Warning %r28 was declared previous at lud-rodinia-3.6.sm_30.ptx:29 skipping new declaration
GPGPU-Sim PTX: Warning %r29 was declared previous at lud-rodinia-3.6.sm_30.ptx:29 skipping new declaration
GPGPU-Sim PTX: Warning %r30 was declared previous at lud-rodinia-3.6.sm_30.ptx:29 skipping new declaration
GPGPU-Sim PTX: Warning %r31 was declared previous at lud-rodinia-3.6.sm_30.ptx:29 skipping new declaration
GPGPU-Sim PTX: Warning %r32 was declared previous at lud-rodinia-3.6.sm_30.ptx:29 skipping new declaration
GPGPU-Sim PTX: Warning %r33 was declared previous at lud-rodinia-3.6.sm_30.ptx:29 skipping new declaration
GPGPU-Sim PTX: Warning %r34 was declared previous at lud-rodinia-3.6.sm_30.ptx:29 skipping new declaration
GPGPU-Sim PTX: Warning %r35 was declared previous at lud-rodinia-3.6.sm_30.ptx:29 skipping new declaration
GPGPU-Sim PTX: Warning %r36 was declared previous at lud-rodinia-3.6.sm_30.ptx:29 skipping new declaration
GPGPU-Sim PTX: Warning %r37 was declared previous at lud-rodinia-3.6.sm_30.ptx:29 skipping new declaration
GPGPU-Sim PTX: Warning %r38 was declared previous at lud-rodinia-3.6.sm_30.ptx:29 skipping new declaration
GPGPU-Sim PTX: Warning %r39 was declared previous at lud-rodinia-3.6.sm_30.ptx:29 skipping new declaration
GPGPU-Sim PTX: Warning %r40 was declared previous at lud-rodinia-3.6.sm_30.ptx:29 skipping new declaration
GPGPU-Sim PTX: Warning %r41 was declared previous at lud-rodinia-3.6.sm_30.ptx:29 skipping new declaration
GPGPU-Sim PTX: Warning %r42 was declared previous at lud-rodinia-3.6.sm_30.ptx:29 skipping new declaration
GPGPU-Sim PTX: Warning %r43 was declared previous at lud-rodinia-3.6.sm_30.ptx:29 skipping new declaration
GPGPU-Sim PTX: Warning %r44 was declared previous at lud-rodinia-3.6.sm_30.ptx:29 skipping new declaration
GPGPU-Sim PTX: Warning %r45 was declared previous at lud-rodinia-3.6.sm_30.ptx:29 skipping new declaration
GPGPU-Sim PTX: Warning %r46 was declared previous at lud-rodinia-3.6.sm_30.ptx:29 skipping new declaration
GPGPU-Sim PTX: Warning %r47 was declared previous at lud-rodinia-3.6.sm_30.ptx:29 skipping new declaration
GPGPU-Sim PTX: Warning %r48 was declared previous at lud-rodinia-3.6.sm_30.ptx:29 skipping new declaration
GPGPU-Sim PTX: Warning %r49 was declared previous at lud-rodinia-3.6.sm_30.ptx:29 skipping new declaration
GPGPU-Sim PTX: Warning %r50 was declared previous at lud-rodinia-3.6.sm_30.ptx:29 skipping new declaration
GPGPU-Sim PTX: Warning %r51 was declared previous at lud-rodinia-3.6.sm_30.ptx:29 skipping new declaration
GPGPU-Sim PTX: Warning %r52 was declared previous at lud-rodinia-3.6.sm_30.ptx:29 skipping new declaration
GPGPU-Sim PTX: Warning %r53 was declared previous at lud-rodinia-3.6.sm_30.ptx:29 skipping new declaration
GPGPU-Sim PTX: Warning %r54 was declared previous at lud-rodinia-3.6.sm_30.ptx:29 skipping new declaration
GPGPU-Sim PTX: Warning %r55 was declared previous at lud-rodinia-3.6.sm_30.ptx:29 skipping new declaration
GPGPU-Sim PTX: Warning %r56 was declared previous at lud-rodinia-3.6.sm_30.ptx:29 skipping new declaration
GPGPU-Sim PTX: Warning %r57 was declared previous at lud-rodinia-3.6.sm_30.ptx:29 skipping new declaration
GPGPU-Sim PTX: Warning %r58 was declared previous at lud-rodinia-3.6.sm_30.ptx:29 skipping new declaration
GPGPU-Sim PTX: Warning %r59 was declared previous at lud-rodinia-3.6.sm_30.ptx:29 skipping new declaration
GPGPU-Sim PTX: Warning %r60 was declared previous at lud-rodinia-3.6.sm_30.ptx:29 skipping new declaration
GPGPU-Sim PTX: Warning %r61 was declared previous at lud-rodinia-3.6.sm_30.ptx:29 skipping new declaration
GPGPU-Sim PTX: Warning %r62 was declared previous at lud-rodinia-3.6.sm_30.ptx:29 skipping new declaration
GPGPU-Sim PTX: Warning %r63 was declared previous at lud-rodinia-3.6.sm_30.ptx:29 skipping new declaration
GPGPU-Sim PTX: Warning %r64 was declared previous at lud-rodinia-3.6.sm_30.ptx:29 skipping new declaration
GPGPU-Sim PTX: Warning %r65 was declared previous at lud-rodinia-3.6.sm_30.ptx:29 skipping new declaration
GPGPU-Sim PTX: Warning %r66 was declared previous at lud-rodinia-3.6.sm_30.ptx:29 skipping new declaration
GPGPU-Sim PTX: Warning %r67 was declared previous at lud-rodinia-3.6.sm_30.ptx:29 skipping new declaration
GPGPU-Sim PTX: Warning %r68 was declared previous at lud-rodinia-3.6.sm_30.ptx:29 skipping new declaration
GPGPU-Sim PTX: Warning %r69 was declared previous at lud-rodinia-3.6.sm_30.ptx:29 skipping new declaration
GPGPU-Sim PTX: Warning %r70 was declared previous at lud-rodinia-3.6.sm_30.ptx:29 skipping new declaration
GPGPU-Sim PTX: Warning %r71 was declared previous at lud-rodinia-3.6.sm_30.ptx:29 skipping new declaration
GPGPU-Sim PTX: Warning %r72 was declared previous at lud-rodinia-3.6.sm_30.ptx:29 skipping new declaration
GPGPU-Sim PTX: Warning %r73 was declared previous at lud-rodinia-3.6.sm_30.ptx:29 skipping new declaration
GPGPU-Sim PTX: Warning %r74 was declared previous at lud-rodinia-3.6.sm_30.ptx:29 skipping new declaration
GPGPU-Sim PTX: Warning %r75 was declared previous at lud-rodinia-3.6.sm_30.ptx:29 skipping new declaration
GPGPU-Sim PTX: Warning %r76 was declared previous at lud-rodinia-3.6.sm_30.ptx:29 skipping new declaration
GPGPU-Sim PTX: Warning %r77 was declared previous at lud-rodinia-3.6.sm_30.ptx:29 skipping new declaration
GPGPU-Sim PTX: Warning %r78 was declared previous at lud-rodinia-3.6.sm_30.ptx:29 skipping new declaration
GPGPU-Sim PTX: Warning %r79 was declared previous at lud-rodinia-3.6.sm_30.ptx:29 skipping new declaration
GPGPU-Sim PTX: Warning %r80 was declared previous at lud-rodinia-3.6.sm_30.ptx:29 skipping new declaration
GPGPU-Sim PTX: Warning %r81 was declared previous at lud-rodinia-3.6.sm_30.ptx:29 skipping new declaration
GPGPU-Sim PTX: Warning %r82 was declared previous at lud-rodinia-3.6.sm_30.ptx:29 skipping new declaration
GPGPU-Sim PTX: Warning %r83 was declared previous at lud-rodinia-3.6.sm_30.ptx:29 skipping new declaration
GPGPU-Sim PTX: Warning %r84 was declared previous at lud-rodinia-3.6.sm_30.ptx:29 skipping new declaration
GPGPU-Sim PTX: Warning %r85 was declared previous at lud-rodinia-3.6.sm_30.ptx:29 skipping new declaration
GPGPU-Sim PTX: Warning %r86 was declared previous at lud-rodinia-3.6.sm_30.ptx:29 skipping new declaration
GPGPU-Sim PTX: Warning %r87 was declared previous at lud-rodinia-3.6.sm_30.ptx:29 skipping new declaration
GPGPU-Sim PTX: Warning %r88 was declared previous at lud-rodinia-3.6.sm_30.ptx:29 skipping new declaration
GPGPU-Sim PTX: Warning %r89 was declared previous at lud-rodinia-3.6.sm_30.ptx:29 skipping new declaration
GPGPU-Sim PTX: Warning %r90 was declared previous at lud-rodinia-3.6.sm_30.ptx:29 skipping new declaration
GPGPU-Sim PTX: Warning %r91 was declared previous at lud-rodinia-3.6.sm_30.ptx:29 skipping new declaration
GPGPU-Sim PTX: Warning %r92 was declared previous at lud-rodinia-3.6.sm_30.ptx:29 skipping new declaration
GPGPU-Sim PTX: Warning %r93 was declared previous at lud-rodinia-3.6.sm_30.ptx:29 skipping new declaration
GPGPU-Sim PTX: Warning %rd0 was declared previous at lud-rodinia-3.6.sm_30.ptx:30 skipping new declaration
GPGPU-Sim PTX: Warning %rd1 was declared previous at lud-rodinia-3.6.sm_30.ptx:30 skipping new declaration
GPGPU-Sim PTX: Warning %rd2 was declared previous at lud-rodinia-3.6.sm_30.ptx:30 skipping new declaration
GPGPU-Sim PTX: Warning %rd3 was declared previous at lud-rodinia-3.6.sm_30.ptx:30 skipping new declaration
GPGPU-Sim PTX: Warning %rd4 was declared previous at lud-rodinia-3.6.sm_30.ptx:30 skipping new declaration
GPGPU-Sim PTX: Warning %rd5 was declared previous at lud-rodinia-3.6.sm_30.ptx:30 skipping new declaration
GPGPU-Sim PTX: Warning %rd6 was declared previous at lud-rodinia-3.6.sm_30.ptx:30 skipping new declaration
GPGPU-Sim PTX: Warning %rd7 was declared previous at lud-rodinia-3.6.sm_30.ptx:30 skipping new declaration
GPGPU-Sim PTX: Warning %rd8 was declared previous at lud-rodinia-3.6.sm_30.ptx:30 skipping new declaration
GPGPU-Sim PTX: Warning %rd9 was declared previous at lud-rodinia-3.6.sm_30.ptx:30 skipping new declaration
GPGPU-Sim PTX: Warning %rd10 was declared previous at lud-rodinia-3.6.sm_30.ptx:30 skipping new declaration
GPGPU-Sim PTX: Warning %rd11 was declared previous at lud-rodinia-3.6.sm_30.ptx:30 skipping new declaration
GPGPU-Sim PTX: Warning %rd12 was declared previous at lud-rodinia-3.6.sm_30.ptx:30 skipping new declaration
GPGPU-Sim PTX: Warning %rd13 was declared previous at lud-rodinia-3.6.sm_30.ptx:30 skipping new declaration
GPGPU-Sim PTX: Warning %rd14 was declared previous at lud-rodinia-3.6.sm_30.ptx:30 skipping new declaration
GPGPU-Sim PTX: Warning %rd15 was declared previous at lud-rodinia-3.6.sm_30.ptx:30 skipping new declaration
GPGPU-Sim PTX: Warning %rd16 was declared previous at lud-rodinia-3.6.sm_30.ptx:30 skipping new declaration
GPGPU-Sim PTX: Warning %rd17 was declared previous at lud-rodinia-3.6.sm_30.ptx:30 skipping new declaration
GPGPU-Sim PTX: Warning %rd18 was declared previous at lud-rodinia-3.6.sm_30.ptx:30 skipping new declaration
GPGPU-Sim PTX: Warning %rd19 was declared previous at lud-rodinia-3.6.sm_30.ptx:30 skipping new declaration
GPGPU-Sim PTX: Warning %rd20 was declared previous at lud-rodinia-3.6.sm_30.ptx:30 skipping new declaration
GPGPU-Sim PTX: Warning %rd21 was declared previous at lud-rodinia-3.6.sm_30.ptx:30 skipping new declaration
GPGPU-Sim PTX: Warning %rd22 was declared previous at lud-rodinia-3.6.sm_30.ptx:30 skipping new declaration
GPGPU-Sim PTX: Warning %rd23 was declared previous at lud-rodinia-3.6.sm_30.ptx:30 skipping new declaration
GPGPU-Sim PTX: Warning %rd24 was declared previous at lud-rodinia-3.6.sm_30.ptx:30 skipping new declaration
GPGPU-Sim PTX: Warning %rd25 was declared previous at lud-rodinia-3.6.sm_30.ptx:30 skipping new declaration
GPGPU-Sim PTX: Warning %rd26 was declared previous at lud-rodinia-3.6.sm_30.ptx:30 skipping new declaration
GPGPU-Sim PTX: Warning %rd27 was declared previous at lud-rodinia-3.6.sm_30.ptx:30 skipping new declaration
GPGPU-Sim PTX: Warning %rd28 was declared previous at lud-rodinia-3.6.sm_30.ptx:30 skipping new declaration
GPGPU-Sim PTX: Warning %rd29 was declared previous at lud-rodinia-3.6.sm_30.ptx:30 skipping new declaration
GPGPU-Sim PTX: Warning %rd30 was declared previous at lud-rodinia-3.6.sm_30.ptx:30 skipping new declaration
GPGPU-Sim PTX: Warning %rd31 was declared previous at lud-rodinia-3.6.sm_30.ptx:30 skipping new declaration
GPGPU-Sim PTX: Warning %rd32 was declared previous at lud-rodinia-3.6.sm_30.ptx:30 skipping new declaration
GPGPU-Sim PTX: Warning %rd33 was declared previous at lud-rodinia-3.6.sm_30.ptx:30 skipping new declaration
GPGPU-Sim PTX: Warning %rd34 was declared previous at lud-rodinia-3.6.sm_30.ptx:30 skipping new declaration
GPGPU-Sim PTX: Warning %rd35 was declared previous at lud-rodinia-3.6.sm_30.ptx:30 skipping new declaration
GPGPU-Sim PTX: Warning %rd36 was declared previous at lud-rodinia-3.6.sm_30.ptx:30 skipping new declaration
GPGPU-Sim PTX: Warning %rd37 was declared previous at lud-rodinia-3.6.sm_30.ptx:30 skipping new declaration
GPGPU-Sim PTX: Warning %rd38 was declared previous at lud-rodinia-3.6.sm_30.ptx:30 skipping new declaration
GPGPU-Sim PTX: Warning %rd39 was declared previous at lud-rodinia-3.6.sm_30.ptx:30 skipping new declaration
GPGPU-Sim PTX: Warning %rd40 was declared previous at lud-rodinia-3.6.sm_30.ptx:30 skipping new declaration
GPGPU-Sim PTX: Warning %rd41 was declared previous at lud-rodinia-3.6.sm_30.ptx:30 skipping new declaration
GPGPU-Sim PTX: Warning %rd42 was declared previous at lud-rodinia-3.6.sm_30.ptx:30 skipping new declaration
GPGPU-Sim PTX: Warning %rd43 was declared previous at lud-rodinia-3.6.sm_30.ptx:30 skipping new declaration
GPGPU-Sim PTX: Warning %rd44 was declared previous at lud-rodinia-3.6.sm_30.ptx:30 skipping new declaration
GPGPU-Sim PTX: Warning %rd45 was declared previous at lud-rodinia-3.6.sm_30.ptx:30 skipping new declaration
GPGPU-Sim PTX: Warning %rd46 was declared previous at lud-rodinia-3.6.sm_30.ptx:30 skipping new declaration
GPGPU-Sim PTX: Warning %rd47 was declared previous at lud-rodinia-3.6.sm_30.ptx:30 skipping new declaration
GPGPU-Sim PTX: Warning %rd48 was declared previous at lud-rodinia-3.6.sm_30.ptx:30 skipping new declaration
GPGPU-Sim PTX: Warning %rd49 was declared previous at lud-rodinia-3.6.sm_30.ptx:30 skipping new declaration
GPGPU-Sim PTX: Warning %rd50 was declared previous at lud-rodinia-3.6.sm_30.ptx:30 skipping new declaration
GPGPU-Sim PTX: Warning %rd51 was declared previous at lud-rodinia-3.6.sm_30.ptx:30 skipping new declaration
GPGPU-Sim PTX: Warning %rd52 was declared previous at lud-rodinia-3.6.sm_30.ptx:30 skipping new declaration
GPGPU-Sim PTX: Warning %rd53 was declared previous at lud-rodinia-3.6.sm_30.ptx:30 skipping new declaration
GPGPU-Sim PTX: Warning %rd54 was declared previous at lud-rodinia-3.6.sm_30.ptx:30 skipping new declaration
GPGPU-Sim PTX: Warning %rd55 was declared previous at lud-rodinia-3.6.sm_30.ptx:30 skipping new declaration
GPGPU-Sim PTX: Warning %rd56 was declared previous at lud-rodinia-3.6.sm_30.ptx:30 skipping new declaration
GPGPU-Sim PTX: Warning %rd57 was declared previous at lud-rodinia-3.6.sm_30.ptx:30 skipping new declaration
GPGPU-Sim PTX: Warning %rd58 was declared previous at lud-rodinia-3.6.sm_30.ptx:30 skipping new declaration
GPGPU-Sim PTX: Warning %rd59 was declared previous at lud-rodinia-3.6.sm_30.ptx:30 skipping new declaration
GPGPU-Sim PTX: Warning %rd60 was declared previous at lud-rodinia-3.6.sm_30.ptx:30 skipping new declaration
GPGPU-Sim PTX: Warning %rd61 was declared previous at lud-rodinia-3.6.sm_30.ptx:30 skipping new declaration
GPGPU-Sim PTX: Warning %rd62 was declared previous at lud-rodinia-3.6.sm_30.ptx:30 skipping new declaration
GPGPU-Sim PTX: Warning %rd63 was declared previous at lud-rodinia-3.6.sm_30.ptx:30 skipping new declaration
GPGPU-Sim PTX: Warning %rd64 was declared previous at lud-rodinia-3.6.sm_30.ptx:30 skipping new declaration
GPGPU-Sim PTX: Warning _ZZ12lud_diagonalPfiiE6shadow was declared previous at lud-rodinia-3.6.sm_30.ptx:32 skipping new declaration
GPGPU-Sim PTX: instruction assembly for function '_Z12lud_diagonalPfii'...   done.
GPGPU-Sim PTX: Warning %p0 was declared previous at lud-rodinia-3.6.sm_30.ptx:287 skipping new declaration
GPGPU-Sim PTX: Warning %p1 was declared previous at lud-rodinia-3.6.sm_30.ptx:287 skipping new declaration
GPGPU-Sim PTX: Warning %p2 was declared previous at lud-rodinia-3.6.sm_30.ptx:287 skipping new declaration
GPGPU-Sim PTX: Warning %p3 was declared previous at lud-rodinia-3.6.sm_30.ptx:287 skipping new declaration
GPGPU-Sim PTX: Warning %p4 was declared previous at lud-rodinia-3.6.sm_30.ptx:287 skipping new declaration
GPGPU-Sim PTX: Warning %p5 was declared previous at lud-rodinia-3.6.sm_30.ptx:287 skipping new declaration
GPGPU-Sim PTX: Warning %f0 was declared previous at lud-rodinia-3.6.sm_30.ptx:288 skipping new declaration
GPGPU-Sim PTX: Warning %f1 was declared previous at lud-rodinia-3.6.sm_30.ptx:288 skipping new declaration
GPGPU-Sim PTX: Warning %f2 was declared previous at lud-rodinia-3.6.sm_30.ptx:288 skipping new declaration
GPGPU-Sim PTX: Warning %f3 was declared previous at lud-rodinia-3.6.sm_30.ptx:288 skipping new declaration
GPGPU-Sim PTX: Warning %f4 was declared previous at lud-rodinia-3.6.sm_30.ptx:288 skipping new declaration
GPGPU-Sim PTX: Warning %f5 was declared previous at lud-rodinia-3.6.sm_30.ptx:288 skipping new declaration
GPGPU-Sim PTX: Warning %f6 was declared previous at lud-rodinia-3.6.sm_30.ptx:288 skipping new declaration
GPGPU-Sim PTX: Warning %f7 was declared previous at lud-rodinia-3.6.sm_30.ptx:288 skipping new declaration
GPGPU-Sim PTX: Warning %f8 was declared previous at lud-rodinia-3.6.sm_30.ptx:288 skipping new declaration
GPGPU-Sim PTX: Warning %f9 was declared previous at lud-rodinia-3.6.sm_30.ptx:288 skipping new declaration
GPGPU-Sim PTX: Warning %f10 was declared previous at lud-rodinia-3.6.sm_30.ptx:288 skipping new declaration
GPGPU-Sim PTX: Warning %f11 was declared previous at lud-rodinia-3.6.sm_30.ptx:288 skipping new declaration
GPGPU-Sim PTX: Warning %f12 was declared previous at lud-rodinia-3.6.sm_30.ptx:288 skipping new declaration
GPGPU-Sim PTX: Warning %f13 was declared previous at lud-rodinia-3.6.sm_30.ptx:288 skipping new declaration
GPGPU-Sim PTX: Warning %f14 was declared previous at lud-rodinia-3.6.sm_30.ptx:288 skipping new declaration
GPGPU-Sim PTX: Warning %f15 was declared previous at lud-rodinia-3.6.sm_30.ptx:288 skipping new declaration
GPGPU-Sim PTX: Warning %f16 was declared previous at lud-rodinia-3.6.sm_30.ptx:288 skipping new declaration
GPGPU-Sim PTX: Warning %f17 was declared previous at lud-rodinia-3.6.sm_30.ptx:288 skipping new declaration
GPGPU-Sim PTX: Warning %f18 was declared previous at lud-rodinia-3.6.sm_30.ptx:288 skipping new declaration
GPGPU-Sim PTX: Warning %f19 was declared previous at lud-rodinia-3.6.sm_30.ptx:288 skipping new declaration
GPGPU-Sim PTX: Warning %f20 was declared previous at lud-rodinia-3.6.sm_30.ptx:288 skipping new declaration
GPGPU-Sim PTX: Warning %f21 was declared previous at lud-rodinia-3.6.sm_30.ptx:288 skipping new declaration
GPGPU-Sim PTX: Warning %f22 was declared previous at lud-rodinia-3.6.sm_30.ptx:288 skipping new declaration
GPGPU-Sim PTX: Warning %f23 was declared previous at lud-rodinia-3.6.sm_30.ptx:288 skipping new declaration
GPGPU-Sim PTX: Warning %f24 was declared previous at lud-rodinia-3.6.sm_30.ptx:288 skipping new declaration
GPGPU-Sim PTX: Warning %f25 was declared previous at lud-rodinia-3.6.sm_30.ptx:288 skipping new declaration
GPGPU-Sim PTX: Warning %f26 was declared previous at lud-rodinia-3.6.sm_30.ptx:288 skipping new declaration
GPGPU-Sim PTX: Warning %f27 was declared previous at lud-rodinia-3.6.sm_30.ptx:288 skipping new declaration
GPGPU-Sim PTX: Warning %f28 was declared previous at lud-rodinia-3.6.sm_30.ptx:288 skipping new declaration
GPGPU-Sim PTX: Warning %f29 was declared previous at lud-rodinia-3.6.sm_30.ptx:288 skipping new declaration
GPGPU-Sim PTX: Warning %f30 was declared previous at lud-rodinia-3.6.sm_30.ptx:288 skipping new declaration
GPGPU-Sim PTX: Warning %f31 was declared previous at lud-rodinia-3.6.sm_30.ptx:288 skipping new declaration
GPGPU-Sim PTX: Warning %f32 was declared previous at lud-rodinia-3.6.sm_30.ptx:288 skipping new declaration
GPGPU-Sim PTX: Warning %f33 was declared previous at lud-rodinia-3.6.sm_30.ptx:288 skipping new declaration
GPGPU-Sim PTX: Warning %f34 was declared previous at lud-rodinia-3.6.sm_30.ptx:288 skipping new declaration
GPGPU-Sim PTX: Warning %f35 was declared previous at lud-rodinia-3.6.sm_30.ptx:288 skipping new declaration
GPGPU-Sim PTX: Warning %f36 was declared previous at lud-rodinia-3.6.sm_30.ptx:288 skipping new declaration
GPGPU-Sim PTX: Warning %f37 was declared previous at lud-rodinia-3.6.sm_30.ptx:288 skipping new declaration
GPGPU-Sim PTX: Warning %f38 was declared previous at lud-rodinia-3.6.sm_30.ptx:288 skipping new declaration
GPGPU-Sim PTX: Warning %f39 was declared previous at lud-rodinia-3.6.sm_30.ptx:288 skipping new declaration
GPGPU-Sim PTX: Warning %f40 was declared previous at lud-rodinia-3.6.sm_30.ptx:288 skipping new declaration
GPGPU-Sim PTX: Warning %f41 was declared previous at lud-rodinia-3.6.sm_30.ptx:288 skipping new declaration
GPGPU-Sim PTX: Warning %f42 was declared previous at lud-rodinia-3.6.sm_30.ptx:288 skipping new declaration
GPGPU-Sim PTX: Warning %f43 was declared previous at lud-rodinia-3.6.sm_30.ptx:288 skipping new declaration
GPGPU-Sim PTX: Warning %f44 was declared previous at lud-rodinia-3.6.sm_30.ptx:288 skipping new declaration
GPGPU-Sim PTX: Warning %f45 was declared previous at lud-rodinia-3.6.sm_30.ptx:288 skipping new declaration
GPGPU-Sim PTX: Warning %f46 was declared previous at lud-rodinia-3.6.sm_30.ptx:288 skipping new declaration
GPGPU-Sim PTX: Warning %f47 was declared previous at lud-rodinia-3.6.sm_30.ptx:288 skipping new declaration
GPGPU-Sim PTX: Warning %f48 was declared previous at lud-rodinia-3.6.sm_30.ptx:288 skipping new declaration
GPGPU-Sim PTX: Warning %f49 was declared previous at lud-rodinia-3.6.sm_30.ptx:288 skipping new declaration
GPGPU-Sim PTX: Warning %f50 was declared previous at lud-rodinia-3.6.sm_30.ptx:288 skipping new declaration
GPGPU-Sim PTX: Warning %f51 was declared previous at lud-rodinia-3.6.sm_30.ptx:288 skipping new declaration
GPGPU-Sim PTX: Warning %f52 was declared previous at lud-rodinia-3.6.sm_30.ptx:288 skipping new declaration
GPGPU-Sim PTX: Warning %f53 was declared previous at lud-rodinia-3.6.sm_30.ptx:288 skipping new declaration
GPGPU-Sim PTX: Warning %f54 was declared previous at lud-rodinia-3.6.sm_30.ptx:288 skipping new declaration
GPGPU-Sim PTX: Warning %f55 was declared previous at lud-rodinia-3.6.sm_30.ptx:288 skipping new declaration
GPGPU-Sim PTX: Warning %f56 was declared previous at lud-rodinia-3.6.sm_30.ptx:288 skipping new declaration
GPGPU-Sim PTX: Warning %f57 was declared previous at lud-rodinia-3.6.sm_30.ptx:288 skipping new declaration
GPGPU-Sim PTX: Warning %f58 was declared previous at lud-rodinia-3.6.sm_30.ptx:288 skipping new declaration
GPGPU-Sim PTX: Warning %f59 was declared previous at lud-rodinia-3.6.sm_30.ptx:288 skipping new declaration
GPGPU-Sim PTX: Warning %f60 was declared previous at lud-rodinia-3.6.sm_30.ptx:288 skipping new declaration
GPGPU-Sim PTX: Warning %f61 was declared previous at lud-rodinia-3.6.sm_30.ptx:288 skipping new declaration
GPGPU-Sim PTX: Warning %f62 was declared previous at lud-rodinia-3.6.sm_30.ptx:288 skipping new declaration
GPGPU-Sim PTX: Warning %f63 was declared previous at lud-rodinia-3.6.sm_30.ptx:288 skipping new declaration
GPGPU-Sim PTX: Warning %f64 was declared previous at lud-rodinia-3.6.sm_30.ptx:288 skipping new declaration
GPGPU-Sim PTX: Warning %f65 was declared previous at lud-rodinia-3.6.sm_30.ptx:288 skipping new declaration
GPGPU-Sim PTX: Warning %f66 was declared previous at lud-rodinia-3.6.sm_30.ptx:288 skipping new declaration
GPGPU-Sim PTX: Warning %f67 was declared previous at lud-rodinia-3.6.sm_30.ptx:288 skipping new declaration
GPGPU-Sim PTX: Warning %f68 was declared previous at lud-rodinia-3.6.sm_30.ptx:288 skipping new declaration
GPGPU-Sim PTX: Warning %f69 was declared previous at lud-rodinia-3.6.sm_30.ptx:288 skipping new declaration
GPGPU-Sim PTX: Warning %f70 was declared previous at lud-rodinia-3.6.sm_30.ptx:288 skipping new declaration
GPGPU-Sim PTX: Warning %f71 was declared previous at lud-rodinia-3.6.sm_30.ptx:288 skipping new declaration
GPGPU-Sim PTX: Warning %f72 was declared previous at lud-rodinia-3.6.sm_30.ptx:288 skipping new declaration
GPGPU-Sim PTX: Warning %f73 was declared previous at lud-rodinia-3.6.sm_30.ptx:288 skipping new declaration
GPGPU-Sim PTX: Warning %f74 was declared previous at lud-rodinia-3.6.sm_30.ptx:288 skipping new declaration
GPGPU-Sim PTX: Warning %f75 was declared previous at lud-rodinia-3.6.sm_30.ptx:288 skipping new declaration
GPGPU-Sim PTX: Warning %f76 was declared previous at lud-rodinia-3.6.sm_30.ptx:288 skipping new declaration
GPGPU-Sim PTX: Warning %f77 was declared previous at lud-rodinia-3.6.sm_30.ptx:288 skipping new declaration
GPGPU-Sim PTX: Warning %f78 was declared previous at lud-rodinia-3.6.sm_30.ptx:288 skipping new declaration
GPGPU-Sim PTX: Warning %f79 was declared previous at lud-rodinia-3.6.sm_30.ptx:288 skipping new declaration
GPGPU-Sim PTX: Warning %f80 was declared previous at lud-rodinia-3.6.sm_30.ptx:288 skipping new declaration
GPGPU-Sim PTX: Warning %f81 was declared previous at lud-rodinia-3.6.sm_30.ptx:288 skipping new declaration
GPGPU-Sim PTX: Warning %f82 was declared previous at lud-rodinia-3.6.sm_30.ptx:288 skipping new declaration
GPGPU-Sim PTX: Warning %f83 was declared previous at lud-rodinia-3.6.sm_30.ptx:288 skipping new declaration
GPGPU-Sim PTX: Warning %f84 was declared previous at lud-rodinia-3.6.sm_30.ptx:288 skipping new declaration
GPGPU-Sim PTX: Warning %f85 was declared previous at lud-rodinia-3.6.sm_30.ptx:288 skipping new declaration
GPGPU-Sim PTX: Warning %f86 was declared previous at lud-rodinia-3.6.sm_30.ptx:288 skipping new declaration
GPGPU-Sim PTX: Warning %f87 was declared previous at lud-rodinia-3.6.sm_30.ptx:288 skipping new declaration
GPGPU-Sim PTX: Warning %f88 was declared previous at lud-rodinia-3.6.sm_30.ptx:288 skipping new declaration
GPGPU-Sim PTX: Warning %f89 was declared previous at lud-rodinia-3.6.sm_30.ptx:288 skipping new declaration
GPGPU-Sim PTX: Warning %f90 was declared previous at lud-rodinia-3.6.sm_30.ptx:288 skipping new declaration
GPGPU-Sim PTX: Warning %f91 was declared previous at lud-rodinia-3.6.sm_30.ptx:288 skipping new declaration
GPGPU-Sim PTX: Warning %f92 was declared previous at lud-rodinia-3.6.sm_30.ptx:288 skipping new declaration
GPGPU-Sim PTX: Warning %f93 was declared previous at lud-rodinia-3.6.sm_30.ptx:288 skipping new declaration
GPGPU-Sim PTX: Warning %f94 was declared previous at lud-rodinia-3.6.sm_30.ptx:288 skipping new declaration
GPGPU-Sim PTX: Warning %f95 was declared previous at lud-rodinia-3.6.sm_30.ptx:288 skipping new declaration
GPGPU-Sim PTX: Warning %f96 was declared previous at lud-rodinia-3.6.sm_30.ptx:288 skipping new declaration
GPGPU-Sim PTX: Warning %f97 was declared previous at lud-rodinia-3.6.sm_30.ptx:288 skipping new declaration
GPGPU-Sim PTX: Warning %f98 was declared previous at lud-rodinia-3.6.sm_30.ptx:288 skipping new declaration
GPGPU-Sim PTX: Warning %f99 was declared previous at lud-rodinia-3.6.sm_30.ptx:288 skipping new declaration
GPGPU-Sim PTX: Warning %f100 was declared previous at lud-rodinia-3.6.sm_30.ptx:288 skipping new declaration
GPGPU-Sim PTX: Warning %f101 was declared previous at lud-rodinia-3.6.sm_30.ptx:288 skipping new declaration
GPGPU-Sim PTX: Warning %f102 was declared previous at lud-rodinia-3.6.sm_30.ptx:288 skipping new declaration
GPGPU-Sim PTX: Warning %f103 was declared previous at lud-rodinia-3.6.sm_30.ptx:288 skipping new declaration
GPGPU-Sim PTX: Warning %f104 was declared previous at lud-rodinia-3.6.sm_30.ptx:288 skipping new declaration
GPGPU-Sim PTX: Warning %f105 was declared previous at lud-rodinia-3.6.sm_30.ptx:288 skipping new declaration
GPGPU-Sim PTX: Warning %f106 was declared previous at lud-rodinia-3.6.sm_30.ptx:288 skipping new declaration
GPGPU-Sim PTX: Warning %f107 was declared previous at lud-rodinia-3.6.sm_30.ptx:288 skipping new declaration
GPGPU-Sim PTX: Warning %f108 was declared previous at lud-rodinia-3.6.sm_30.ptx:288 skipping new declaration
GPGPU-Sim PTX: Warning %f109 was declared previous at lud-rodinia-3.6.sm_30.ptx:288 skipping new declaration
GPGPU-Sim PTX: Warning %f110 was declared previous at lud-rodinia-3.6.sm_30.ptx:288 skipping new declaration
GPGPU-Sim PTX: Warning %f111 was declared previous at lud-rodinia-3.6.sm_30.ptx:288 skipping new declaration
GPGPU-Sim PTX: Warning %f112 was declared previous at lud-rodinia-3.6.sm_30.ptx:288 skipping new declaration
GPGPU-Sim PTX: Warning %f113 was declared previous at lud-rodinia-3.6.sm_30.ptx:288 skipping new declaration
GPGPU-Sim PTX: Warning %f114 was declared previous at lud-rodinia-3.6.sm_30.ptx:288 skipping new declaration
GPGPU-Sim PTX: Warning %f115 was declared previous at lud-rodinia-3.6.sm_30.ptx:288 skipping new declaration
GPGPU-Sim PTX: Warning %f116 was declared previous at lud-rodinia-3.6.sm_30.ptx:288 skipping new declaration
GPGPU-Sim PTX: Warning %f117 was declared previous at lud-rodinia-3.6.sm_30.ptx:288 skipping new declaration
GPGPU-Sim PTX: Warning %f118 was declared previous at lud-rodinia-3.6.sm_30.ptx:288 skipping new declaration
GPGPU-Sim PTX: Warning %f119 was declared previous at lud-rodinia-3.6.sm_30.ptx:288 skipping new declaration
GPGPU-Sim PTX: Warning %f120 was declared previous at lud-rodinia-3.6.sm_30.ptx:288 skipping new declaration
GPGPU-Sim PTX: Warning %f121 was declared previous at lud-rodinia-3.6.sm_30.ptx:288 skipping new declaration
GPGPU-Sim PTX: Warning %f122 was declared previous at lud-rodinia-3.6.sm_30.ptx:288 skipping new declaration
GPGPU-Sim PTX: Warning %f123 was declared previous at lud-rodinia-3.6.sm_30.ptx:288 skipping new declaration
GPGPU-Sim PTX: Warning %f124 was declared previous at lud-rodinia-3.6.sm_30.ptx:288 skipping new declaration
GPGPU-Sim PTX: Warning %f125 was declared previous at lud-rodinia-3.6.sm_30.ptx:288 skipping new declaration
GPGPU-Sim PTX: Warning %f126 was declared previous at lud-rodinia-3.6.sm_30.ptx:288 skipping new declaration
GPGPU-Sim PTX: Warning %f127 was declared previous at lud-rodinia-3.6.sm_30.ptx:288 skipping new declaration
GPGPU-Sim PTX: Warning %f128 was declared previous at lud-rodinia-3.6.sm_30.ptx:288 skipping new declaration
GPGPU-Sim PTX: Warning %f129 was declared previous at lud-rodinia-3.6.sm_30.ptx:288 skipping new declaration
GPGPU-Sim PTX: Warning %f130 was declared previous at lud-rodinia-3.6.sm_30.ptx:288 skipping new declaration
GPGPU-Sim PTX: Warning %f131 was declared previous at lud-rodinia-3.6.sm_30.ptx:288 skipping new declaration
GPGPU-Sim PTX: Warning %f132 was declared previous at lud-rodinia-3.6.sm_30.ptx:288 skipping new declaration
GPGPU-Sim PTX: Warning %f133 was declared previous at lud-rodinia-3.6.sm_30.ptx:288 skipping new declaration
GPGPU-Sim PTX: Warning %f134 was declared previous at lud-rodinia-3.6.sm_30.ptx:288 skipping new declaration
GPGPU-Sim PTX: Warning %f135 was declared previous at lud-rodinia-3.6.sm_30.ptx:288 skipping new declaration
GPGPU-Sim PTX: Warning %f136 was declared previous at lud-rodinia-3.6.sm_30.ptx:288 skipping new declaration
GPGPU-Sim PTX: Warning %f137 was declared previous at lud-rodinia-3.6.sm_30.ptx:288 skipping new declaration
GPGPU-Sim PTX: Warning %f138 was declared previous at lud-rodinia-3.6.sm_30.ptx:288 skipping new declaration
GPGPU-Sim PTX: Warning %f139 was declared previous at lud-rodinia-3.6.sm_30.ptx:288 skipping new declaration
GPGPU-Sim PTX: Warning %f140 was declared previous at lud-rodinia-3.6.sm_30.ptx:288 skipping new declaration
GPGPU-Sim PTX: Warning %f141 was declared previous at lud-rodinia-3.6.sm_30.ptx:288 skipping new declaration
GPGPU-Sim PTX: Warning %f142 was declared previous at lud-rodinia-3.6.sm_30.ptx:288 skipping new declaration
GPGPU-Sim PTX: Warning %f143 was declared previous at lud-rodinia-3.6.sm_30.ptx:288 skipping new declaration
GPGPU-Sim PTX: Warning %f144 was declared previous at lud-rodinia-3.6.sm_30.ptx:288 skipping new declaration
GPGPU-Sim PTX: Warning %f145 was declared previous at lud-rodinia-3.6.sm_30.ptx:288 skipping new declaration
GPGPU-Sim PTX: Warning %f146 was declared previous at lud-rodinia-3.6.sm_30.ptx:288 skipping new declaration
GPGPU-Sim PTX: Warning %f147 was declared previous at lud-rodinia-3.6.sm_30.ptx:288 skipping new declaration
GPGPU-Sim PTX: Warning %f148 was declared previous at lud-rodinia-3.6.sm_30.ptx:288 skipping new declaration
GPGPU-Sim PTX: Warning %f149 was declared previous at lud-rodinia-3.6.sm_30.ptx:288 skipping new declaration
GPGPU-Sim PTX: Warning %f150 was declared previous at lud-rodinia-3.6.sm_30.ptx:288 skipping new declaration
GPGPU-Sim PTX: Warning %f151 was declared previous at lud-rodinia-3.6.sm_30.ptx:288 skipping new declaration
GPGPU-Sim PTX: Warning %f152 was declared previous at lud-rodinia-3.6.sm_30.ptx:288 skipping new declaration
GPGPU-Sim PTX: Warning %f153 was declared previous at lud-rodinia-3.6.sm_30.ptx:288 skipping new declaration
GPGPU-Sim PTX: Warning %f154 was declared previous at lud-rodinia-3.6.sm_30.ptx:288 skipping new declaration
GPGPU-Sim PTX: Warning %f155 was declared previous at lud-rodinia-3.6.sm_30.ptx:288 skipping new declaration
GPGPU-Sim PTX: Warning %f156 was declared previous at lud-rodinia-3.6.sm_30.ptx:288 skipping new declaration
GPGPU-Sim PTX: Warning %f157 was declared previous at lud-rodinia-3.6.sm_30.ptx:288 skipping new declaration
GPGPU-Sim PTX: Warning %f158 was declared previous at lud-rodinia-3.6.sm_30.ptx:288 skipping new declaration
GPGPU-Sim PTX: Warning %f159 was declared previous at lud-rodinia-3.6.sm_30.ptx:288 skipping new declaration
GPGPU-Sim PTX: Warning %f160 was declared previous at lud-rodinia-3.6.sm_30.ptx:288 skipping new declaration
GPGPU-Sim PTX: Warning %f161 was declared previous at lud-rodinia-3.6.sm_30.ptx:288 skipping new declaration
GPGPU-Sim PTX: Warning %f162 was declared previous at lud-rodinia-3.6.sm_30.ptx:288 skipping new declaration
GPGPU-Sim PTX: Warning %f163 was declared previous at lud-rodinia-3.6.sm_30.ptx:288 skipping new declaration
GPGPU-Sim PTX: Warning %f164 was declared previous at lud-rodinia-3.6.sm_30.ptx:288 skipping new declaration
GPGPU-Sim PTX: Warning %f165 was declared previous at lud-rodinia-3.6.sm_30.ptx:288 skipping new declaration
GPGPU-Sim PTX: Warning %f166 was declared previous at lud-rodinia-3.6.sm_30.ptx:288 skipping new declaration
GPGPU-Sim PTX: Warning %f167 was declared previous at lud-rodinia-3.6.sm_30.ptx:288 skipping new declaration
GPGPU-Sim PTX: Warning %f168 was declared previous at lud-rodinia-3.6.sm_30.ptx:288 skipping new declaration
GPGPU-Sim PTX: Warning %f169 was declared previous at lud-rodinia-3.6.sm_30.ptx:288 skipping new declaration
GPGPU-Sim PTX: Warning %f170 was declared previous at lud-rodinia-3.6.sm_30.ptx:288 skipping new declaration
GPGPU-Sim PTX: Warning %f171 was declared previous at lud-rodinia-3.6.sm_30.ptx:288 skipping new declaration
GPGPU-Sim PTX: Warning %f172 was declared previous at lud-rodinia-3.6.sm_30.ptx:288 skipping new declaration
GPGPU-Sim PTX: Warning %f173 was declared previous at lud-rodinia-3.6.sm_30.ptx:288 skipping new declaration
GPGPU-Sim PTX: Warning %f174 was declared previous at lud-rodinia-3.6.sm_30.ptx:288 skipping new declaration
GPGPU-Sim PTX: Warning %f175 was declared previous at lud-rodinia-3.6.sm_30.ptx:288 skipping new declaration
GPGPU-Sim PTX: Warning %f176 was declared previous at lud-rodinia-3.6.sm_30.ptx:288 skipping new declaration
GPGPU-Sim PTX: Warning %f177 was declared previous at lud-rodinia-3.6.sm_30.ptx:288 skipping new declaration
GPGPU-Sim PTX: Warning %f178 was declared previous at lud-rodinia-3.6.sm_30.ptx:288 skipping new declaration
GPGPU-Sim PTX: Warning %f179 was declared previous at lud-rodinia-3.6.sm_30.ptx:288 skipping new declaration
GPGPU-Sim PTX: Warning %f180 was declared previous at lud-rodinia-3.6.sm_30.ptx:288 skipping new declaration
GPGPU-Sim PTX: Warning %f181 was declared previous at lud-rodinia-3.6.sm_30.ptx:288 skipping new declaration
GPGPU-Sim PTX: Warning %f182 was declared previous at lud-rodinia-3.6.sm_30.ptx:288 skipping new declaration
GPGPU-Sim PTX: Warning %f183 was declared previous at lud-rodinia-3.6.sm_30.ptx:288 skipping new declaration
GPGPU-Sim PTX: Warning %f184 was declared previous at lud-rodinia-3.6.sm_30.ptx:288 skipping new declaration
GPGPU-Sim PTX: Warning %f185 was declared previous at lud-rodinia-3.6.sm_30.ptx:288 skipping new declaration
GPGPU-Sim PTX: Warning %f186 was declared previous at lud-rodinia-3.6.sm_30.ptx:288 skipping new declaration
GPGPU-Sim PTX: Warning %f187 was declared previous at lud-rodinia-3.6.sm_30.ptx:288 skipping new declaration
GPGPU-Sim PTX: Warning %f188 was declared previous at lud-rodinia-3.6.sm_30.ptx:288 skipping new declaration
GPGPU-Sim PTX: Warning %f189 was declared previous at lud-rodinia-3.6.sm_30.ptx:288 skipping new declaration
GPGPU-Sim PTX: Warning %f190 was declared previous at lud-rodinia-3.6.sm_30.ptx:288 skipping new declaration
GPGPU-Sim PTX: Warning %f191 was declared previous at lud-rodinia-3.6.sm_30.ptx:288 skipping new declaration
GPGPU-Sim PTX: Warning %f192 was declared previous at lud-rodinia-3.6.sm_30.ptx:288 skipping new declaration
GPGPU-Sim PTX: Warning %f193 was declared previous at lud-rodinia-3.6.sm_30.ptx:288 skipping new declaration
GPGPU-Sim PTX: Warning %f194 was declared previous at lud-rodinia-3.6.sm_30.ptx:288 skipping new declaration
GPGPU-Sim PTX: Warning %f195 was declared previous at lud-rodinia-3.6.sm_30.ptx:288 skipping new declaration
GPGPU-Sim PTX: Warning %f196 was declared previous at lud-rodinia-3.6.sm_30.ptx:288 skipping new declaration
GPGPU-Sim PTX: Warning %f197 was declared previous at lud-rodinia-3.6.sm_30.ptx:288 skipping new declaration
GPGPU-Sim PTX: Warning %f198 was declared previous at lud-rodinia-3.6.sm_30.ptx:288 skipping new declaration
GPGPU-Sim PTX: Warning %f199 was declared previous at lud-rodinia-3.6.sm_30.ptx:288 skipping new declaration
GPGPU-Sim PTX: Warning %f200 was declared previous at lud-rodinia-3.6.sm_30.ptx:288 skipping new declaration
GPGPU-Sim PTX: Warning %f201 was declared previous at lud-rodinia-3.6.sm_30.ptx:288 skipping new declaration
GPGPU-Sim PTX: Warning %f202 was declared previous at lud-rodinia-3.6.sm_30.ptx:288 skipping new declaration
GPGPU-Sim PTX: Warning %f203 was declared previous at lud-rodinia-3.6.sm_30.ptx:288 skipping new declaration
GPGPU-Sim PTX: Warning %f204 was declared previous at lud-rodinia-3.6.sm_30.ptx:288 skipping new declaration
GPGPU-Sim PTX: Warning %f205 was declared previous at lud-rodinia-3.6.sm_30.ptx:288 skipping new declaration
GPGPU-Sim PTX: Warning %f206 was declared previous at lud-rodinia-3.6.sm_30.ptx:288 skipping new declaration
GPGPU-Sim PTX: Warning %f207 was declared previous at lud-rodinia-3.6.sm_30.ptx:288 skipping new declaration
GPGPU-Sim PTX: Warning %f208 was declared previous at lud-rodinia-3.6.sm_30.ptx:288 skipping new declaration
GPGPU-Sim PTX: Warning %f209 was declared previous at lud-rodinia-3.6.sm_30.ptx:288 skipping new declaration
GPGPU-Sim PTX: Warning %f210 was declared previous at lud-rodinia-3.6.sm_30.ptx:288 skipping new declaration
GPGPU-Sim PTX: Warning %f211 was declared previous at lud-rodinia-3.6.sm_30.ptx:288 skipping new declaration
GPGPU-Sim PTX: Warning %f212 was declared previous at lud-rodinia-3.6.sm_30.ptx:288 skipping new declaration
GPGPU-Sim PTX: Warning %f213 was declared previous at lud-rodinia-3.6.sm_30.ptx:288 skipping new declaration
GPGPU-Sim PTX: Warning %f214 was declared previous at lud-rodinia-3.6.sm_30.ptx:288 skipping new declaration
GPGPU-Sim PTX: Warning %f215 was declared previous at lud-rodinia-3.6.sm_30.ptx:288 skipping new declaration
GPGPU-Sim PTX: Warning %f216 was declared previous at lud-rodinia-3.6.sm_30.ptx:288 skipping new declaration
GPGPU-Sim PTX: Warning %f217 was declared previous at lud-rodinia-3.6.sm_30.ptx:288 skipping new declaration
GPGPU-Sim PTX: Warning %f218 was declared previous at lud-rodinia-3.6.sm_30.ptx:288 skipping new declaration
GPGPU-Sim PTX: Warning %f219 was declared previous at lud-rodinia-3.6.sm_30.ptx:288 skipping new declaration
GPGPU-Sim PTX: Warning %f220 was declared previous at lud-rodinia-3.6.sm_30.ptx:288 skipping new declaration
GPGPU-Sim PTX: Warning %f221 was declared previous at lud-rodinia-3.6.sm_30.ptx:288 skipping new declaration
GPGPU-Sim PTX: Warning %f222 was declared previous at lud-rodinia-3.6.sm_30.ptx:288 skipping new declaration
GPGPU-Sim PTX: Warning %f223 was declared previous at lud-rodinia-3.6.sm_30.ptx:288 skipping new declaration
GPGPU-Sim PTX: Warning %f224 was declared previous at lud-rodinia-3.6.sm_30.ptx:288 skipping new declaration
GPGPU-Sim PTX: Warning %f225 was declared previous at lud-rodinia-3.6.sm_30.ptx:288 skipping new declaration
GPGPU-Sim PTX: Warning %f226 was declared previous at lud-rodinia-3.6.sm_30.ptx:288 skipping new declaration
GPGPU-Sim PTX: Warning %f227 was declared previous at lud-rodinia-3.6.sm_30.ptx:288 skipping new declaration
GPGPU-Sim PTX: Warning %f228 was declared previous at lud-rodinia-3.6.sm_30.ptx:288 skipping new declaration
GPGPU-Sim PTX: Warning %f229 was declared previous at lud-rodinia-3.6.sm_30.ptx:288 skipping new declaration
GPGPU-Sim PTX: Warning %f230 was declared previous at lud-rodinia-3.6.sm_30.ptx:288 skipping new declaration
GPGPU-Sim PTX: Warning %f231 was declared previous at lud-rodinia-3.6.sm_30.ptx:288 skipping new declaration
GPGPU-Sim PTX: Warning %f232 was declared previous at lud-rodinia-3.6.sm_30.ptx:288 skipping new declaration
GPGPU-Sim PTX: Warning %f233 was declared previous at lud-rodinia-3.6.sm_30.ptx:288 skipping new declaration
GPGPU-Sim PTX: Warning %f234 was declared previous at lud-rodinia-3.6.sm_30.ptx:288 skipping new declaration
GPGPU-Sim PTX: Warning %f235 was declared previous at lud-rodinia-3.6.sm_30.ptx:288 skipping new declaration
GPGPU-Sim PTX: Warning %f236 was declared previous at lud-rodinia-3.6.sm_30.ptx:288 skipping new declaration
GPGPU-Sim PTX: Warning %f237 was declared previous at lud-rodinia-3.6.sm_30.ptx:288 skipping new declaration
GPGPU-Sim PTX: Warning %f238 was declared previous at lud-rodinia-3.6.sm_30.ptx:288 skipping new declaration
GPGPU-Sim PTX: Warning %f239 was declared previous at lud-rodinia-3.6.sm_30.ptx:288 skipping new declaration
GPGPU-Sim PTX: Warning %f240 was declared previous at lud-rodinia-3.6.sm_30.ptx:288 skipping new declaration
GPGPU-Sim PTX: Warning %f241 was declared previous at lud-rodinia-3.6.sm_30.ptx:288 skipping new declaration
GPGPU-Sim PTX: Warning %f242 was declared previous at lud-rodinia-3.6.sm_30.ptx:288 skipping new declaration
GPGPU-Sim PTX: Warning %f243 was declared previous at lud-rodinia-3.6.sm_30.ptx:288 skipping new declaration
GPGPU-Sim PTX: Warning %f244 was declared previous at lud-rodinia-3.6.sm_30.ptx:288 skipping new declaration
GPGPU-Sim PTX: Warning %f245 was declared previous at lud-rodinia-3.6.sm_30.ptx:288 skipping new declaration
GPGPU-Sim PTX: Warning %f246 was declared previous at lud-rodinia-3.6.sm_30.ptx:288 skipping new declaration
GPGPU-Sim PTX: Warning %f247 was declared previous at lud-rodinia-3.6.sm_30.ptx:288 skipping new declaration
GPGPU-Sim PTX: Warning %f248 was declared previous at lud-rodinia-3.6.sm_30.ptx:288 skipping new declaration
GPGPU-Sim PTX: Warning %f249 was declared previous at lud-rodinia-3.6.sm_30.ptx:288 skipping new declaration
GPGPU-Sim PTX: Warning %f250 was declared previous at lud-rodinia-3.6.sm_30.ptx:288 skipping new declaration
GPGPU-Sim PTX: Warning %f251 was declared previous at lud-rodinia-3.6.sm_30.ptx:288 skipping new declaration
GPGPU-Sim PTX: Warning %f252 was declared previous at lud-rodinia-3.6.sm_30.ptx:288 skipping new declaration
GPGPU-Sim PTX: Warning %f253 was declared previous at lud-rodinia-3.6.sm_30.ptx:288 skipping new declaration
GPGPU-Sim PTX: Warning %f254 was declared previous at lud-rodinia-3.6.sm_30.ptx:288 skipping new declaration
[...]
dram[4]:     none      none      none      none      none      none      none      none      none      none      none      none      none      none      none      none  
dram[5]:     none      none      none      none      none      none      none      none      none      none      none      none      none      none      none      none  
maximum mf latency per bank:
dram[0]:       1188       679      1553       571      1580       639      1299       936       630       960       608       933         0         0         0         0
dram[1]:        544       538      1077       608      1242       543      1237       565      1228       565      1123       562         0         0         0         0
dram[2]:        632      1287       634      1617       598      1621       964      1332      1005       637      1014       639         0         0         0         0
dram[3]:        544       633       618       988       609      1152       612      1202       619      1192       611      1149         0         0         0         0
dram[4]:       1197       788      1578       606      1599       622      1380      1133       611      1160       555      1154         0         0         0         0
dram[5]:        563       592      1108       568      1249       577      1279       607      1284       614      1222       608         0         0         0         0
Memory Partition 0: 
Cache L2_bank_000:
MSHR contents

Cache L2_bank_001:
MSHR contents

In Dram Latency Queue (total = 0): 
DRAM[0]: 16 bks, busW=4 BL=8 CL=12, tRRD=6 tCCD=2, tRCD=12 tRAS=28 tRP=12 tRC=40
n_cmd=1184257 n_nop=1184188 n_act=3 n_pre=0 n_ref_event=31978960 n_req=66 n_rd=66 n_rd_L2_A=0 n_write=0 n_wr_bk=0 bw_util=0.0001115
n_activity=414 dram_eff=0.3188
bk0: 2a 1184244i bk1: 0a 1184258i bk2: 32a 1184200i bk3: 32a 1184198i bk4: 0a 1184256i bk5: 0a 1184256i bk6: 0a 1184256i bk7: 0a 1184256i bk8: 0a 1184256i bk9: 0a 1184256i bk10: 0a 1184256i bk11: 0a 1184257i bk12: 0a 1184257i bk13: 0a 1184258i bk14: 0a 1184258i bk15: 0a 1184258i 

------------------------------------------------------------------------

Row_Buffer_Locality = 0.969697
Row_Buffer_Locality_read = 0.969697
Row_Buffer_Locality_write = -nan
Bank_Level_Parallism = 1.000000
Bank_Level_Parallism_Col = 0.000000
Bank_Level_Parallism_Ready = 1.000000
write_to_read_ratio_blp_rw_average = 0.000000
GrpLevelPara = 0.000000 

BW Util details:
bwutil = 0.000111 
total_CMD = 1184257 
util_bw = 132 
Wasted_Col = 85 
Wasted_Row = 0 
Idle = 1184040 

BW Util Bottlenecks: 
RCDc_limit = 36 
RCDWRc_limit = 0 
WTRc_limit = 0 
RTWc_limit = 0 
CCDLc_limit = 49 
rwq = 0 
CCDLc_limit_alone = 49 
WTRc_limit_alone = 0 
RTWc_limit_alone = 0 

Commands details: 
total_CMD = 1184257 
n_nop = 1184188 
Read = 66 
Write = 0 
L2_Alloc = 0 
L2_WB = 0 
n_act = 3 
n_pre = 0 
n_ref = 31978960 
n_req = 66 
total_req = 66 

Dual Bus Interface Util: 
issued_total_row = 3 
issued_total_col = 66 
Row_Bus_Util =  0.000003 
CoL_Bus_Util = 0.000056 
Either_Row_CoL_Bus_Util = 0.000058 
Issued_on_Two_Bus_Simul_Util = 0.000000 
issued_two_Eff = 0.000000 
queue_avg = 0.000129 


dram_util_bins: 0 0 0 0 0 0 0 0 0 0
dram_eff_bins: 0 0 0 0 0 0 0 0 0 0
mrqq: max=3 avg=0.000129195
Memory Partition 1: 
Cache L2_bank_002:
MSHR contents

Cache L2_bank_003:
MSHR contents

In Dram Latency Queue (total = 0): 
DRAM[1]: 16 bks, busW=4 BL=8 CL=12, tRRD=6 tCCD=2, tRCD=12 tRAS=28 tRP=12 tRC=40
n_cmd=1184257 n_nop=1184191 n_act=2 n_pre=0 n_ref_event=0 n_req=64 n_rd=64 n_rd_L2_A=0 n_write=0 n_wr_bk=0 bw_util=0.0001081
n_activity=374 dram_eff=0.3422
bk0: 0a 1184258i bk1: 0a 1184259i bk2: 32a 1184199i bk3: 32a 1184198i bk4: 0a 1184255i bk5: 0a 1184256i bk6: 0a 1184256i bk7: 0a 1184256i bk8: 0a 1184256i bk9: 0a 1184256i bk10: 0a 1184256i bk11: 0a 1184257i bk12: 0a 1184257i bk13: 0a 1184258i bk14: 0a 1184258i bk15: 0a 1184258i 

------------------------------------------------------------------------

Row_Buffer_Locality = 0.968750
Row_Buffer_Locality_read = 0.968750
Row_Buffer_Locality_write = -nan
Bank_Level_Parallism = 1.000000
Bank_Level_Parallism_Col = 1.000000
Bank_Level_Parallism_Ready = 1.000000
write_to_read_ratio_blp_rw_average = 0.000000
GrpLevelPara = 1.000000 

BW Util details:
bwutil = 0.000108 
total_CMD = 1184257 
util_bw = 128 
Wasted_Col = 72 
Wasted_Row = 0 
Idle = 1184057 

BW Util Bottlenecks: 
RCDc_limit = 24 
RCDWRc_limit = 0 
WTRc_limit = 0 
RTWc_limit = 0 
CCDLc_limit = 48 
rwq = 0 
CCDLc_limit_alone = 48 
WTRc_limit_alone = 0 
RTWc_limit_alone = 0 

Commands details: 
total_CMD = 1184257 
n_nop = 1184191 
Read = 64 
Write = 0 
L2_Alloc = 0 
L2_WB = 0 
n_act = 2 
n_pre = 0 
n_ref = 0 
n_req = 64 
total_req = 64 

Dual Bus Interface Util: 
issued_total_row = 2 
issued_total_col = 64 
Row_Bus_Util =  0.000002 
CoL_Bus_Util = 0.000054 
Either_Row_CoL_Bus_Util = 0.000056 
Issued_on_Two_Bus_Simul_Util = 0.000000 
issued_two_Eff = 0.000000 
queue_avg = 0.000122 


dram_util_bins: 0 0 0 0 0 0 0 0 0 0
dram_eff_bins: 0 0 0 0 0 0 0 0 0 0
mrqq: max=3 avg=0.00012244
Memory Partition 2: 
Cache L2_bank_004:
MSHR contents

Cache L2_bank_005:
MSHR contents

In Dram Latency Queue (total = 0): 
DRAM[2]: 16 bks, busW=4 BL=8 CL=12, tRRD=6 tCCD=2, tRCD=12 tRAS=28 tRP=12 tRC=40
n_cmd=1184257 n_nop=1184191 n_act=2 n_pre=0 n_ref_event=0 n_req=64 n_rd=64 n_rd_L2_A=0 n_write=0 n_wr_bk=0 bw_util=0.0001081
n_activity=374 dram_eff=0.3422
bk0: 0a 1184258i bk1: 0a 1184259i bk2: 32a 1184200i bk3: 32a 1184201i bk4: 0a 1184255i bk5: 0a 1184256i bk6: 0a 1184256i bk7: 0a 1184256i bk8: 0a 1184256i bk9: 0a 1184256i bk10: 0a 1184256i bk11: 0a 1184257i bk12: 0a 1184257i bk13: 0a 1184258i bk14: 0a 1184258i bk15: 0a 1184258i 

------------------------------------------------------------------------

Row_Buffer_Locality = 0.968750
Row_Buffer_Locality_read = 0.968750
Row_Buffer_Locality_write = -nan
Bank_Level_Parallism = 1.000000
Bank_Level_Parallism_Col = 1.000000
Bank_Level_Parallism_Ready = 1.000000
write_to_read_ratio_blp_rw_average = 0.000000
GrpLevelPara = 1.000000 

BW Util details:
bwutil = 0.000108 
total_CMD = 1184257 
util_bw = 128 
Wasted_Col = 72 
Wasted_Row = 0 
Idle = 1184057 

BW Util Bottlenecks: 
RCDc_limit = 24 
RCDWRc_limit = 0 
WTRc_limit = 0 
RTWc_limit = 0 
CCDLc_limit = 48 
rwq = 0 
CCDLc_limit_alone = 48 
WTRc_limit_alone = 0 
RTWc_limit_alone = 0 

Commands details: 
total_CMD = 1184257 
n_nop = 1184191 
Read = 64 
Write = 0 
L2_Alloc = 0 
L2_WB = 0 
n_act = 2 
n_pre = 0 
n_ref = 0 
n_req = 64 
total_req = 64 

Dual Bus Interface Util: 
issued_total_row = 2 
issued_total_col = 64 
Row_Bus_Util =  0.000002 
CoL_Bus_Util = 0.000054 
Either_Row_CoL_Bus_Util = 0.000056 
Issued_on_Two_Bus_Simul_Util = 0.000000 
issued_two_Eff = 0.000000 
queue_avg = 0.000117 


dram_util_bins: 0 0 0 0 0 0 0 0 0 0
dram_eff_bins: 0 0 0 0 0 0 0 0 0 0
mrqq: max=3 avg=0.000117373
Memory Partition 3: 
Cache L2_bank_006:
MSHR contents

Cache L2_bank_007:
MSHR contents

In Dram Latency Queue (total = 0): 
DRAM[3]: 16 bks, busW=4 BL=8 CL=12, tRRD=6 tCCD=2, tRCD=12 tRAS=28 tRP=12 tRC=40
n_cmd=1184257 n_nop=1184191 n_act=2 n_pre=0 n_ref_event=0 n_req=64 n_rd=64 n_rd_L2_A=0 n_write=0 n_wr_bk=0 bw_util=0.0001081
n_activity=374 dram_eff=0.3422
bk0: 0a 1184258i bk1: 0a 1184259i bk2: 32a 1184200i bk3: 32a 1184200i bk4: 0a 1184255i bk5: 0a 1184256i bk6: 0a 1184256i bk7: 0a 1184256i bk8: 0a 1184256i bk9: 0a 1184256i bk10: 0a 1184256i bk11: 0a 1184257i bk12: 0a 1184257i bk13: 0a 1184258i bk14: 0a 1184258i bk15: 0a 1184258i 

------------------------------------------------------------------------

Row_Buffer_Locality = 0.968750
Row_Buffer_Locality_read = 0.968750
Row_Buffer_Locality_write = -nan
Bank_Level_Parallism = 1.000000
Bank_Level_Parallism_Col = 0.000000
Bank_Level_Parallism_Ready = 1.000000
write_to_read_ratio_blp_rw_average = 0.000000
GrpLevelPara = 0.000000 

BW Util details:
bwutil = 0.000108 
total_CMD = 1184257 
util_bw = 128 
Wasted_Col = 72 
Wasted_Row = 0 
Idle = 1184057 

BW Util Bottlenecks: 
RCDc_limit = 24 
RCDWRc_limit = 0 
WTRc_limit = 0 
RTWc_limit = 0 
CCDLc_limit = 48 
rwq = 0 
CCDLc_limit_alone = 48 
WTRc_limit_alone = 0 
RTWc_limit_alone = 0 

Commands details: 
total_CMD = 1184257 
n_nop = 1184191 
Read = 64 
Write = 0 
L2_Alloc = 0 
L2_WB = 0 
n_act = 2 
n_pre = 0 
n_ref = 0 
n_req = 64 
total_req = 64 

Dual Bus Interface Util: 
issued_total_row = 2 
issued_total_col = 64 
Row_Bus_Util =  0.000002 
CoL_Bus_Util = 0.000054 
Either_Row_CoL_Bus_Util = 0.000056 
Issued_on_Two_Bus_Simul_Util = 0.000000 
issued_two_Eff = 0.000000 
queue_avg = 0.000121 


dram_util_bins: 0 0 0 0 0 0 0 0 0 0
dram_eff_bins: 0 0 0 0 0 0 0 0 0 0
mrqq: max=3 avg=0.000120751
Memory Partition 4: 
Cache L2_bank_008:
MSHR contents

Cache L2_bank_009:
MSHR contents

In Dram Latency Queue (total = 0): 
DRAM[4]: 16 bks, busW=4 BL=8 CL=12, tRRD=6 tCCD=2, tRCD=12 tRAS=28 tRP=12 tRC=40
n_cmd=1184257 n_nop=1184186 n_act=3 n_pre=0 n_ref_event=0 n_req=68 n_rd=68 n_rd_L2_A=0 n_write=0 n_wr_bk=0 bw_util=0.0001148
n_activity=414 dram_eff=0.3285
bk0: 0a 1184259i bk1: 4a 1184241i bk2: 32a 1184200i bk3: 32a 1184196i bk4: 0a 1184255i bk5: 0a 1184255i bk6: 0a 1184256i bk7: 0a 1184256i bk8: 0a 1184256i bk9: 0a 1184256i bk10: 0a 1184256i bk11: 0a 1184257i bk12: 0a 1184257i bk13: 0a 1184258i bk14: 0a 1184258i bk15: 0a 1184258i 

------------------------------------------------------------------------

Row_Buffer_Locality = 0.955882
Row_Buffer_Locality_read = 0.955882
Row_Buffer_Locality_write = -nan
Bank_Level_Parallism = 1.000000
Bank_Level_Parallism_Col = 1.000000
Bank_Level_Parallism_Ready = 1.000000
write_to_read_ratio_blp_rw_average = 0.000000
GrpLevelPara = 1.000000 

BW Util details:
bwutil = 0.000115 
total_CMD = 1184257 
util_bw = 136 
Wasted_Col = 87 
Wasted_Row = 0 
Idle = 1184034 

BW Util Bottlenecks: 
RCDc_limit = 36 
RCDWRc_limit = 0 
WTRc_limit = 0 
RTWc_limit = 0 
CCDLc_limit = 51 
rwq = 0 
CCDLc_limit_alone = 51 
WTRc_limit_alone = 0 
RTWc_limit_alone = 0 

Commands details: 
total_CMD = 1184257 
n_nop = 1184186 
Read = 68 
Write = 0 
L2_Alloc = 0 
L2_WB = 0 
n_act = 3 
n_pre = 0 
n_ref = 0 
n_req = 68 
total_req = 68 

Dual Bus Interface Util: 
issued_total_row = 3 
issued_total_col = 68 
Row_Bus_Util =  0.000003 
CoL_Bus_Util = 0.000057 
Either_Row_CoL_Bus_Util = 0.000060 
Issued_on_Two_Bus_Simul_Util = 0.000000 
issued_two_Eff = 0.000000 
queue_avg = 0.000151 


dram_util_bins: 0 0 0 0 0 0 0 0 0 0
dram_eff_bins: 0 0 0 0 0 0 0 0 0 0
mrqq: max=3 avg=0.00015115
Memory Partition 5: 
Cache L2_bank_010:
MSHR contents

Cache L2_bank_011:
MSHR contents

In Dram Latency Queue (total = 0): 
DRAM[5]: 16 bks, busW=4 BL=8 CL=12, tRRD=6 tCCD=2, tRCD=12 tRAS=28 tRP=12 tRC=40
n_cmd=1184257 n_nop=1184190 n_act=3 n_pre=0 n_ref_event=4562280503665652019 n_req=64 n_rd=64 n_rd_L2_A=0 n_write=0 n_wr_bk=0 bw_util=0.0001081
n_activity=393 dram_eff=0.3257
bk0: 0a 1184259i bk1: 8a 1184236i bk2: 32a 1184201i bk3: 24a 1184209i bk4: 0a 1184255i bk5: 0a 1184255i bk6: 0a 1184255i bk7: 0a 1184255i bk8: 0a 1184255i bk9: 0a 1184255i bk10: 0a 1184256i bk11: 0a 1184257i bk12: 0a 1184258i bk13: 0a 1184259i bk14: 0a 1184259i bk15: 0a 1184259i 

------------------------------------------------------------------------

Row_Buffer_Locality = 0.953125
Row_Buffer_Locality_read = 0.953125
Row_Buffer_Locality_write = -nan
Bank_Level_Parallism = 1.000000
Bank_Level_Parallism_Col = 105.635437
Bank_Level_Parallism_Ready = 1.000000
write_to_read_ratio_blp_rw_average = 0.000000
GrpLevelPara = 0.380855 

BW Util details:
bwutil = 0.000108 
total_CMD = 1184257 
util_bw = 128 
Wasted_Col = 84 
Wasted_Row = 0 
Idle = 1184045 

BW Util Bottlenecks: 
RCDc_limit = 36 
RCDWRc_limit = 0 
WTRc_limit = 0 
RTWc_limit = 0 
CCDLc_limit = 48 
rwq = 0 
CCDLc_limit_alone = 48 
WTRc_limit_alone = 0 
RTWc_limit_alone = 0 

Commands details: 
total_CMD = 1184257 
n_nop = 1184190 
Read = 64 
Write = 0 
L2_Alloc = 0 
L2_WB = 0 
n_act = 3 
n_pre = 0 
n_ref = 4562280503665652019 
n_req = 64 
total_req = 64 

Dual Bus Interface Util: 
issued_total_row = 3 
issued_total_col = 64 
Row_Bus_Util =  0.000003 
CoL_Bus_Util = 0.000054 
Either_Row_CoL_Bus_Util = 0.000057 
Issued_on_Two_Bus_Simul_Util = 0.000000 
issued_two_Eff = 0.000000 
queue_avg = 0.000147 


dram_util_bins: 0 0 0 0 0 0 0 0 0 0
dram_eff_bins: 0 0 0 0 0 0 0 0 0 0
mrqq: max=3 avg=0.000146928

========= L2 cache stats =========
L2_cache_bank[0]: Access = 23160, Miss = 34, Miss_rate = 0.001, Pending_hits = 48, Reservation_fails = 384
L2_cache_bank[1]: Access = 27470, Miss = 32, Miss_rate = 0.001, Pending_hits = 84, Reservation_fails = 680
L2_cache_bank[2]: Access = 25626, Miss = 32, Miss_rate = 0.001, Pending_hits = 48, Reservation_fails = 385
L2_cache_bank[3]: Access = 28268, Miss = 32, Miss_rate = 0.001, Pending_hits = 96, Reservation_fails = 768
L2_cache_bank[4]: Access = 26908, Miss = 32, Miss_rate = 0.001, Pending_hits = 48, Reservation_fails = 384
L2_cache_bank[5]: Access = 23398, Miss = 32, Miss_rate = 0.001, Pending_hits = 72, Reservation_fails = 572
L2_cache_bank[6]: Access = 27710, Miss = 32, Miss_rate = 0.001, Pending_hits = 48, Reservation_fails = 383
L2_cache_bank[7]: Access = 26348, Miss = 32, Miss_rate = 0.001, Pending_hits = 68, Reservation_fails = 385
L2_cache_bank[8]: Access = 22436, Miss = 32, Miss_rate = 0.001, Pending_hits = 48, Reservation_fails = 384
L2_cache_bank[9]: Access = 27666, Miss = 36, Miss_rate = 0.001, Pending_hits = 72, Reservation_fails = 549
L2_cache_bank[10]: Access = 25430, Miss = 32, Miss_rate = 0.001, Pending_hits = 72, Reservation_fails = 492
L2_cache_bank[11]: Access = 27446, Miss = 32, Miss_rate = 0.001, Pending_hits = 48, Reservation_fails = 385
L2_total_cache_accesses = 311866
L2_total_cache_misses = 390
L2_total_cache_miss_rate = 0.0013
L2_total_cache_pending_hits = 752
L2_total_cache_reservation_fails = 5751
L2_total_cache_breakdown:
	L2_cache_stats_breakdown[GLOBAL_ACC_R][HIT] = 223200
	L2_cache_stats_breakdown[GLOBAL_ACC_R][HIT_RESERVED] = 0
	L2_cache_stats_breakdown[GLOBAL_ACC_R][MISS] = 0
	L2_cache_stats_breakdown[GLOBAL_ACC_R][RESERVATION_FAIL] = 0
	L2_cache_stats_breakdown[GLOBAL_ACC_R][SECTOR_MISS] = 0
	L2_cache_stats_breakdown[LOCAL_ACC_R][HIT] = 0
	L2_cache_stats_breakdown[LOCAL_ACC_R][HIT_RESERVED] = 0
	L2_cache_stats_breakdown[LOCAL_ACC_R][MISS] = 0
	L2_cache_stats_breakdown[LOCAL_ACC_R][RESERVATION_FAIL] = 0
	L2_cache_stats_breakdown[LOCAL_ACC_R][SECTOR_MISS] = 0
	L2_cache_stats_breakdown[CONST_ACC_R][HIT] = 28
	L2_cache_stats_breakdown[CONST_ACC_R][HIT_RESERVED] = 0
	L2_cache_stats_breakdown[CONST_ACC_R][MISS] = 1
	L2_cache_stats_breakdown[CONST_ACC_R][RESERVATION_FAIL] = 0
	L2_cache_stats_breakdown[CONST_ACC_R][SECTOR_MISS] = 1
	L2_cache_stats_breakdown[TEXTURE_ACC_R][HIT] = 0
	L2_cache_stats_breakdown[TEXTURE_ACC_R][HIT_RESERVED] = 0
	L2_cache_stats_breakdown[TEXTURE_ACC_R][MISS] = 0
	L2_cache_stats_breakdown[TEXTURE_ACC_R][RESERVATION_FAIL] = 0
	L2_cache_stats_breakdown[TEXTURE_ACC_R][SECTOR_MISS] = 0
	L2_cache_stats_breakdown[GLOBAL_ACC_W][HIT] = 47600
	L2_cache_stats_breakdown[GLOBAL_ACC_W][HIT_RESERVED] = 0
	L2_cache_stats_breakdown[GLOBAL_ACC_W][MISS] = 0
	L2_cache_stats_breakdown[GLOBAL_ACC_W][RESERVATION_FAIL] = 0
	L2_cache_stats_breakdown[GLOBAL_ACC_W][SECTOR_MISS] = 0
	L2_cache_stats_breakdown[LOCAL_ACC_W][HIT] = 0
	L2_cache_stats_breakdown[LOCAL_ACC_W][HIT_RESERVED] = 0
	L2_cache_stats_breakdown[LOCAL_ACC_W][MISS] = 0
	L2_cache_stats_breakdown[LOCAL_ACC_W][RESERVATION_FAIL] = 0
	L2_cache_stats_breakdown[LOCAL_ACC_W][SECTOR_MISS] = 0
	L2_cache_stats_breakdown[L1_WRBK_ACC][HIT] = 0
	L2_cache_stats_breakdown[L1_WRBK_ACC][HIT_RESERVED] = 0
	L2_cache_stats_breakdown[L1_WRBK_ACC][MISS] = 0
	L2_cache_stats_breakdown[L1_WRBK_ACC][RESERVATION_FAIL] = 0
	L2_cache_stats_breakdown[L1_WRBK_ACC][SECTOR_MISS] = 0
	L2_cache_stats_breakdown[L2_WRBK_ACC][HIT] = 0
	L2_cache_stats_breakdown[L2_WRBK_ACC][HIT_RESERVED] = 0
	L2_cache_stats_breakdown[L2_WRBK_ACC][MISS] = 0
	L2_cache_stats_breakdown[L2_WRBK_ACC][RESERVATION_FAIL] = 0
	L2_cache_stats_breakdown[L2_WRBK_ACC][SECTOR_MISS] = 0
	L2_cache_stats_breakdown[INST_ACC_R][HIT] = 39896
	L2_cache_stats_breakdown[INST_ACC_R][HIT_RESERVED] = 752
	L2_cache_stats_breakdown[INST_ACC_R][MISS] = 97
	L2_cache_stats_breakdown[INST_ACC_R][RESERVATION_FAIL] = 5751
	L2_cache_stats_breakdown[INST_ACC_R][SECTOR_MISS] = 291
	L2_cache_stats_breakdown[L1_WR_ALLOC_R][HIT] = 0
	L2_cache_stats_breakdown[L1_WR_ALLOC_R][HIT_RESERVED] = 0
	L2_cache_stats_breakdown[L1_WR_ALLOC_R][MISS] = 0
	L2_cache_stats_breakdown[L1_WR_ALLOC_R][RESERVATION_FAIL] = 0
	L2_cache_stats_breakdown[L1_WR_ALLOC_R][SECTOR_MISS] = 0
	L2_cache_stats_breakdown[L2_WR_ALLOC_R][HIT] = 0
	L2_cache_stats_breakdown[L2_WR_ALLOC_R][HIT_RESERVED] = 0
	L2_cache_stats_breakdown[L2_WR_ALLOC_R][MISS] = 0
	L2_cache_stats_breakdown[L2_WR_ALLOC_R][RESERVATION_FAIL] = 0
	L2_cache_stats_breakdown[L2_WR_ALLOC_R][SECTOR_MISS] = 0
	L2_cache_stats_breakdown[GLOBAL_ACC_R][TOTAL_ACCESS] = 223200
	L2_cache_stats_breakdown[CONST_ACC_R][TOTAL_ACCESS] = 30
	L2_cache_stats_breakdown[GLOBAL_ACC_W][TOTAL_ACCESS] = 47600
	L2_cache_stats_breakdown[INST_ACC_R][TOTAL_ACCESS] = 41036
L2_total_cache_reservation_fail_breakdown:
	L2_cache_stats_fail_breakdown[INST_ACC_R][MSHR_MERGE_ENRTY_FAIL] = 5751
L2_cache_data_port_util = 0.029
L2_cache_fill_port_util = 0.000

icnt_total_pkts_mem_to_simt=311866
icnt_total_pkts_simt_to_mem=113674
LD_mem_lat_dist  0 0 0 0 0 0 0 0 0 0 0 0 0 0 0 0 0 0 0 0 0 0 0 0 0 0 0
ST_mem_lat_dist  0 0 0 0 0 0 0 0 0 0 0 0 0 0 0 0 0 0 0 0 0 0 0 0 0 0 0
----------------------------Interconnect-DETAILS--------------------------------
Class 0:
Packet latency average = 5.075
	minimum = 5
	maximum = 6
Network latency average = 5.075
	minimum = 5
	maximum = 6
Slowest packet = 401680
Flit latency average = 5
	minimum = 5
	maximum = 5
Slowest flit = 425325
Fragmentation average = 0
	minimum = 0
	maximum = 0
Injected packet rate average = 0.000273034
	minimum = 0 (at node 0)
	maximum = 0.00169554 (at node 3)
Accepted packet rate average = 0.000273034
	minimum = 0 (at node 0)
	maximum = 0.00567637 (at node 3)
Injected flit rate average = 0.000293511
	minimum = 0 (at node 0)
	maximum = 0.00224843 (at node 3)
Accepted flit rate average= 0.000293511
	minimum = 0 (at node 0)
	maximum = 0.00567637 (at node 3)
Injected packet length average = 1.075
Accepted packet length average = 1.075
Total in-flight flits = 0 (0 measured)
====== Overall Traffic Statistics ======
====== Traffic class 0 ======
Packet latency average = 20.8994 (46 samples)
	minimum = 5 (46 samples)
	maximum = 188.913 (46 samples)
Network latency average = 19.7571 (46 samples)
	minimum = 5 (46 samples)
	maximum = 188.609 (46 samples)
Flit latency average = 18.8915 (46 samples)
	minimum = 5 (46 samples)
	maximum = 188.239 (46 samples)
Fragmentation average = 0.0010831 (46 samples)
	minimum = 0 (46 samples)
	maximum = 15.3043 (46 samples)
Injected packet rate average = 0.0406876 (46 samples)
	minimum = 0.00543583 (46 samples)
	maximum = 0.1283 (46 samples)
Accepted packet rate average = 0.0406876 (46 samples)
	minimum = 0.00731657 (46 samples)
	maximum = 0.0800293 (46 samples)
Injected flit rate average = 0.0431853 (46 samples)
	minimum = 0.00696397 (46 samples)
	maximum = 0.128639 (46 samples)
Accepted flit rate average = 0.0431853 (46 samples)
	minimum = 0.00923347 (46 samples)
	maximum = 0.0800975 (46 samples)
Injected packet size average = 1.06139 (46 samples)
Accepted packet size average = 1.06139 (46 samples)
Hops average = 1 (46 samples)
----------------------------END-of-Interconnect-DETAILS-------------------------


gpgpu_simulation_time = 0 days, 0 hrs, 3 min, 19 sec (199 sec)
gpgpu_simulation_rate = 161867 (inst/sec)
gpgpu_simulation_rate = 4508 (cycle/sec)
gpgpu_silicon_slowdown = 155279x
Time consumed(ms): 197872.834000
After LUD
>>>Verify<<<<
GPGPU-Sim: *** exit detected ***
