

        *** GPGPU-Sim Simulator Version 4.0.0  [build gpgpu-sim_git-commit-90ec3399763d7c8512cfe7dc193473086c38ca38_modified_0.0] ***


GPGPU-Sim PTX: simulation mode 0 (can change with PTX_SIM_MODE_FUNC environment variable:
               1=functional simulation only, 0=detailed performance simulator)
GPGPU-Sim PTX: overriding embedded ptx with ptx file (PTX_SIM_USE_PTX_FILE is set)
GPGPU-Sim: Configuration options:

-save_embedded_ptx                      0 # saves ptx files embedded in binary as <n>.ptx
-keep                                   0 # keep intermediate files created by GPGPU-Sim when interfacing with external programs
-gpgpu_ptx_save_converted_ptxplus                    0 # Saved converted ptxplus to a file
-gpgpu_occupancy_sm_number                   20 # The SM number to pass to ptxas when getting register usage for computing GPU occupancy. This parameter is required in the config.
-ptx_opcode_latency_int      4,13,4,5,145,32 # Opcode latencies for integers <ADD,MAX,MUL,MAD,DIV,SHFL>Default 1,1,19,25,145,32
-ptx_opcode_latency_fp          4,13,4,5,39 # Opcode latencies for single precision floating points <ADD,MAX,MUL,MAD,DIV>Default 1,1,1,1,30
-ptx_opcode_latency_dp         8,19,8,8,330 # Opcode latencies for double precision floating points <ADD,MAX,MUL,MAD,DIV>Default 8,8,8,8,335
-ptx_opcode_latency_sfu                    8 # Opcode latencies for SFU instructionsDefault 8
-ptx_opcode_latency_tesnor                   64 # Opcode latencies for Tensor instructionsDefault 64
-ptx_opcode_initiation_int          1,2,2,1,8,4 # Opcode initiation intervals for integers <ADD,MAX,MUL,MAD,DIV,SHFL>Default 1,1,4,4,32,4
-ptx_opcode_initiation_fp            1,2,1,1,4 # Opcode initiation intervals for single precision floating points <ADD,MAX,MUL,MAD,DIV>Default 1,1,1,1,5
-ptx_opcode_initiation_dp         8,16,8,8,130 # Opcode initiation intervals for double precision floating points <ADD,MAX,MUL,MAD,DIV>Default 8,8,8,8,130
-ptx_opcode_initiation_sfu                    8 # Opcode initiation intervals for sfu instructionsDefault 8
-ptx_opcode_initiation_tensor                   64 # Opcode initiation intervals for tensor instructionsDefault 64
-cdp_latency         7200,8000,100,12000,1600 # CDP API latency <cudaStreamCreateWithFlags, cudaGetParameterBufferV2_init_perWarp, cudaGetParameterBufferV2_perKernel, cudaLaunchDeviceV2_init_perWarp, cudaLaunchDevicV2_perKernel>Default 7200,8000,100,12000,1600
-network_mode                           1 # Interconnection network mode
-inter_config_file   config_fermi_islip.icnt # Interconnection network config file
-icnt_in_buffer_limit                   64 # in_buffer_limit
-icnt_out_buffer_limit                   64 # out_buffer_limit
-icnt_subnets                           2 # subnets
-icnt_arbiter_algo                      1 # arbiter_algo
-icnt_verbose                           0 # inct_verbose
-icnt_grant_cycles                      1 # grant_cycles
-gpgpu_ptx_use_cuobjdump                    1 # Use cuobjdump to extract ptx and sass from binaries
-gpgpu_experimental_lib_support                    0 # Try to extract code from cuda libraries [Broken because of unknown cudaGetExportTable]
-checkpoint_option                      0 #  checkpointing flag (0 = no checkpoint)
-checkpoint_kernel                      1 #  checkpointing during execution of which kernel (1- 1st kernel)
-checkpoint_CTA                         0 #  checkpointing after # of CTA (< less than total CTA)
-resume_option                          0 #  resume flag (0 = no resume)
-resume_kernel                          0 #  Resume from which kernel (1= 1st kernel)
-resume_CTA                             0 #  resume from which CTA 
-checkpoint_CTA_t                       0 #  resume from which CTA 
-checkpoint_insn_Y                      0 #  resume from which CTA 
-gpgpu_ptx_convert_to_ptxplus                    0 # Convert SASS (native ISA) to ptxplus and run ptxplus
-gpgpu_ptx_force_max_capability                   20 # Force maximum compute capability
-gpgpu_ptx_inst_debug_to_file                    0 # Dump executed instructions' debug information to file
-gpgpu_ptx_inst_debug_file       inst_debug.txt # Executed instructions' debug output file
-gpgpu_ptx_inst_debug_thread_uid                    1 # Thread UID for executed instructions' debug output
-gpgpu_simd_model                       1 # 1 = post-dominator
-gpgpu_shader_core_pipeline              1536:32 # shader core pipeline config, i.e., {<nthread>:<warpsize>}
-gpgpu_tex_cache:l1  N:4:128:24,L:R:m:N:L,T:128:4,128:2 # per-shader L1 texture cache  (READ-ONLY) config  {<nsets>:<bsize>:<assoc>,<rep>:<wr>:<alloc>:<wr_alloc>,<mshr>:<N>:<merge>,<mq>:<rf>}
-gpgpu_const_cache:l1 N:64:64:2,L:R:f:N:L,S:2:32,4 # per-shader L1 constant memory cache  (READ-ONLY) config  {<nsets>:<bsize>:<assoc>,<rep>:<wr>:<alloc>:<wr_alloc>,<mshr>:<N>:<merge>,<mq>} 
-gpgpu_cache:il1     N:4:128:4,L:R:f:N:L,S:2:32,4 # shader L1 instruction cache config  {<nsets>:<bsize>:<assoc>,<rep>:<wr>:<alloc>:<wr_alloc>,<mshr>:<N>:<merge>,<mq>} 
-gpgpu_cache:dl1     N:32:128:4,L:L:m:N:H,S:64:8,8 # per-shader L1 data cache config  {<nsets>:<bsize>:<assoc>,<rep>:<wr>:<alloc>:<wr_alloc>,<mshr>:<N>:<merge>,<mq> | none}
-gpgpu_l1_banks                         1 # The number of L1 cache banks
-gpgpu_l1_banks_byte_interleaving                   32 # l1 banks byte interleaving granularity
-gpgpu_l1_banks_hashing_function                    0 # l1 banks hashing function
-gpgpu_l1_latency                      35 # L1 Hit Latency
-gpgpu_smem_latency                    26 # smem Latency
-gpgpu_cache:dl1PrefL1                 none # per-shader L1 data cache config  {<nsets>:<bsize>:<assoc>,<rep>:<wr>:<alloc>:<wr_alloc>,<mshr>:<N>:<merge>,<mq> | none}
-gpgpu_cache:dl1PrefShared                 none # per-shader L1 data cache config  {<nsets>:<bsize>:<assoc>,<rep>:<wr>:<alloc>:<wr_alloc>,<mshr>:<N>:<merge>,<mq> | none}
-gpgpu_gmem_skip_L1D                    0 # global memory access skip L1D cache (implements -Xptxas -dlcm=cg, default=no skip)
-gpgpu_perfect_mem                      0 # enable perfect memory mode (no cache miss)
-n_regfile_gating_group                    4 # group of lanes that should be read/written together)
-gpgpu_clock_gated_reg_file                    0 # enable clock gated reg file for power calculations
-gpgpu_clock_gated_lanes                    0 # enable clock gated lanes for power calculations
-gpgpu_shader_registers                32768 # Number of registers per shader core. Limits number of concurrent CTAs. (default 8192)
-gpgpu_registers_per_block                 8192 # Maximum number of registers per CTA. (default 8192)
-gpgpu_ignore_resources_limitation                    0 # gpgpu_ignore_resources_limitation (default 0)
-gpgpu_shader_cta                       8 # Maximum number of concurrent CTAs in shader (default 8)
-gpgpu_num_cta_barriers                   16 # Maximum number of named barriers per CTA (default 16)
-gpgpu_n_clusters                      15 # number of processing clusters
-gpgpu_n_cores_per_cluster                    1 # number of simd cores per cluster
-gpgpu_n_cluster_ejection_buffer_size                   32 # number of packets in ejection buffer
-gpgpu_n_ldst_response_buffer_size                    2 # number of response packets in ld/st unit ejection buffer
-gpgpu_shmem_per_block                49152 # Size of shared memory per thread block or CTA (default 48kB)
-gpgpu_shmem_size                   49152 # Size of shared memory per shader core (default 16kB)
-gpgpu_adaptive_cache_config                    0 # adaptive_cache_config
-gpgpu_shmem_sizeDefault                49152 # Size of shared memory per shader core (default 16kB)
-gpgpu_shmem_size_PrefL1                16384 # Size of shared memory per shader core (default 16kB)
-gpgpu_shmem_size_PrefShared                16384 # Size of shared memory per shader core (default 16kB)
-gpgpu_shmem_num_banks                   32 # Number of banks in the shared memory in each shader core (default 16)
-gpgpu_shmem_limited_broadcast                    0 # Limit shared memory to do one broadcast per cycle (default on)
-gpgpu_shmem_warp_parts                    1 # Number of portions a warp is divided into for shared memory bank conflict check 
-gpgpu_mem_unit_ports                    1 # The number of memory transactions allowed per core cycle
-gpgpu_shmem_warp_parts                    1 # Number of portions a warp is divided into for shared memory bank conflict check 
-gpgpu_warpdistro_shader                   -1 # Specify which shader core to collect the warp size distribution from
-gpgpu_warp_issue_shader                    0 # Specify which shader core to collect the warp issue distribution from
-gpgpu_local_mem_map                    1 # Mapping from local memory space address to simulated GPU physical address space (default = enabled)
-gpgpu_num_reg_banks                   16 # Number of register banks (default = 8)
-gpgpu_reg_bank_use_warp_id                    0 # Use warp ID in mapping registers to banks (default = off)
-gpgpu_sub_core_model                    0 # Sub Core Volta/Pascal model (default = off)
-gpgpu_enable_specialized_operand_collector                    1 # enable_specialized_operand_collector
-gpgpu_operand_collector_num_units_sp                    6 # number of collector units (default = 4)
-gpgpu_operand_collector_num_units_dp                    0 # number of collector units (default = 0)
-gpgpu_operand_collector_num_units_sfu                    8 # number of collector units (default = 4)
-gpgpu_operand_collector_num_units_int                    0 # number of collector units (default = 0)
-gpgpu_operand_collector_num_units_tensor_core                    4 # number of collector units (default = 4)
-gpgpu_operand_collector_num_units_mem                    2 # number of collector units (default = 2)
-gpgpu_operand_collector_num_units_gen                    0 # number of collector units (default = 0)
-gpgpu_operand_collector_num_in_ports_sp                    2 # number of collector unit in ports (default = 1)
-gpgpu_operand_collector_num_in_ports_dp                    0 # number of collector unit in ports (default = 0)
-gpgpu_operand_collector_num_in_ports_sfu                    1 # number of collector unit in ports (default = 1)
-gpgpu_operand_collector_num_in_ports_int                    0 # number of collector unit in ports (default = 0)
-gpgpu_operand_collector_num_in_ports_tensor_core                    1 # number of collector unit in ports (default = 1)
-gpgpu_operand_collector_num_in_ports_mem                    1 # number of collector unit in ports (default = 1)
-gpgpu_operand_collector_num_in_ports_gen                    0 # number of collector unit in ports (default = 0)
-gpgpu_operand_collector_num_out_ports_sp                    2 # number of collector unit in ports (default = 1)
-gpgpu_operand_collector_num_out_ports_dp                    0 # number of collector unit in ports (default = 0)
-gpgpu_operand_collector_num_out_ports_sfu                    1 # number of collector unit in ports (default = 1)
-gpgpu_operand_collector_num_out_ports_int                    0 # number of collector unit in ports (default = 0)
-gpgpu_operand_collector_num_out_ports_tensor_core                    1 # number of collector unit in ports (default = 1)
-gpgpu_operand_collector_num_out_ports_mem                    1 # number of collector unit in ports (default = 1)
-gpgpu_operand_collector_num_out_ports_gen                    0 # number of collector unit in ports (default = 0)
-gpgpu_coalesce_arch                   20 # Coalescing arch (GT200 = 13, Fermi = 20)
-gpgpu_num_sched_per_core                    2 # Number of warp schedulers per core
-gpgpu_max_insn_issue_per_warp                    1 # Max number of instructions that can be issued per warp in one cycle by scheduler (either 1 or 2)
-gpgpu_dual_issue_diff_exec_units                    1 # should dual issue use two different execution unit resources (Default = 1)
-gpgpu_simt_core_sim_order                    1 # Select the simulation order of cores in a cluster (0=Fix, 1=Round-Robin)
-gpgpu_pipeline_widths 2,0,0,1,1,2,0,0,1,1,2 # Pipeline widths ID_OC_SP,ID_OC_DP,ID_OC_INT,ID_OC_SFU,ID_OC_MEM,OC_EX_SP,OC_EX_DP,OC_EX_INT,OC_EX_SFU,OC_EX_MEM,EX_WB,ID_OC_TENSOR_CORE,OC_EX_TENSOR_CORE
-gpgpu_tensor_core_avail                    0 # Tensor Core Available (default=0)
-gpgpu_num_sp_units                     2 # Number of SP units (default=1)
-gpgpu_num_dp_units                     0 # Number of DP units (default=0)
-gpgpu_num_int_units                    0 # Number of INT units (default=0)
-gpgpu_num_sfu_units                    1 # Number of SF units (default=1)
-gpgpu_num_tensor_core_units                    0 # Number of tensor_core units (default=1)
-gpgpu_num_mem_units                    1 # Number if ldst units (default=1) WARNING: not hooked up to anything
-gpgpu_scheduler                      gto # Scheduler configuration: < lrr | gto | two_level_active > If two_level_active:<num_active_warps>:<inner_prioritization>:<outer_prioritization>For complete list of prioritization values see shader.h enum scheduler_prioritization_typeDefault: gto
-gpgpu_concurrent_kernel_sm                    0 # Support concurrent kernels on a SM (default = disabled)
-gpgpu_perfect_inst_const_cache                    0 # perfect inst and const cache mode, so all inst and const hits in the cache(default = disabled)
-gpgpu_inst_fetch_throughput                    1 # the number of fetched intruction per warp each cycle
-gpgpu_reg_file_port_throughput                    1 # the number ports of the register file
-specialized_unit_1         0,4,4,4,4,BRA # specialized unit config {<enabled>,<num_units>:<latency>:<initiation>,<ID_OC_SPEC>:<OC_EX_SPEC>,<NAME>}
-specialized_unit_2         0,4,4,4,4,BRA # specialized unit config {<enabled>,<num_units>:<latency>:<initiation>,<ID_OC_SPEC>:<OC_EX_SPEC>,<NAME>}
-specialized_unit_3         0,4,4,4,4,BRA # specialized unit config {<enabled>,<num_units>:<latency>:<initiation>,<ID_OC_SPEC>:<OC_EX_SPEC>,<NAME>}
-specialized_unit_4         0,4,4,4,4,BRA # specialized unit config {<enabled>,<num_units>:<latency>:<initiation>,<ID_OC_SPEC>:<OC_EX_SPEC>,<NAME>}
-specialized_unit_5         0,4,4,4,4,BRA # specialized unit config {<enabled>,<num_units>:<latency>:<initiation>,<ID_OC_SPEC>:<OC_EX_SPEC>,<NAME>}
-specialized_unit_6         0,4,4,4,4,BRA # specialized unit config {<enabled>,<num_units>:<latency>:<initiation>,<ID_OC_SPEC>:<OC_EX_SPEC>,<NAME>}
-specialized_unit_7         0,4,4,4,4,BRA # specialized unit config {<enabled>,<num_units>:<latency>:<initiation>,<ID_OC_SPEC>:<OC_EX_SPEC>,<NAME>}
-specialized_unit_8         0,4,4,4,4,BRA # specialized unit config {<enabled>,<num_units>:<latency>:<initiation>,<ID_OC_SPEC>:<OC_EX_SPEC>,<NAME>}
-gpgpu_perf_sim_memcpy                    1 # Fill the L2 cache on memcpy
-gpgpu_simple_dram_model                    0 # simple_dram_model with fixed latency and BW
-gpgpu_dram_scheduler                    1 # 0 = fifo, 1 = FR-FCFS (defaul)
-gpgpu_dram_partition_queues          64:64:64:64 # i2$:$2d:d2$:$2i
-l2_ideal                               0 # Use a ideal L2 cache that always hit
-gpgpu_cache:dl2     S:64:128:8,L:B:m:L:L,A:256:4,4:0,32 # unified banked L2 data cache config  {<nsets>:<bsize>:<assoc>,<rep>:<wr>:<alloc>:<wr_alloc>,<mshr>:<N>:<merge>,<mq>}
-gpgpu_cache:dl2_texture_only                    0 # L2 cache used for texture only
-gpgpu_n_mem                            6 # number of memory modules (e.g. memory controllers) in gpu
-gpgpu_n_sub_partition_per_mchannel                    2 # number of memory subpartition in each memory module
-gpgpu_n_mem_per_ctrlr                    2 # number of memory chips per memory controller
-gpgpu_memlatency_stat                   14 # track and display latency statistics 0x2 enables MC, 0x4 enables queue logs
-gpgpu_frfcfs_dram_sched_queue_size                   64 # 0 = unlimited (default); # entries per chip
-gpgpu_dram_return_queue_size                  116 # 0 = unlimited (default); # entries per chip
-gpgpu_dram_buswidth                    4 # default = 4 bytes (8 bytes per cycle at DDR)
-gpgpu_dram_burst_length                    8 # Burst length of each DRAM request (default = 4 data bus cycle)
-dram_data_command_freq_ratio                    4 # Frequency ratio between DRAM data bus and command bus (default = 2 times, i.e. DDR)
-gpgpu_dram_timing_opt nbk=16:CCD=2:RRD=6:RCD=12:RAS=28:RP=12:RC=40: CL=12:WL=4:CDLR=5:WR=12:nbkgrp=4:CCDL=3:RTPL=2 # DRAM timing parameters = {nbk:tCCD:tRRD:tRCD:tRAS:tRP:tRC:CL:WL:tCDLR:tWR:nbkgrp:tCCDL:tRTPL}
-gpgpu_l2_rop_latency                  120 # ROP queue latency (default 85)
-dram_latency                         100 # DRAM latency (default 30)
-dram_dual_bus_interface                    0 # dual_bus_interface (default = 0) 
-dram_bnk_indexing_policy                    0 # dram_bnk_indexing_policy (0 = normal indexing, 1 = Xoring with the higher bits) (Default = 0)
-dram_bnkgrp_indexing_policy                    1 # dram_bnkgrp_indexing_policy (0 = take higher bits, 1 = take lower bits) (Default = 0)
-dram_seperate_write_queue_enable                    0 # Seperate_Write_Queue_Enable
-dram_write_queue_size             32:28:16 # Write_Queue_Size
-dram_elimnate_rw_turnaround                    0 # elimnate_rw_turnaround i.e set tWTR and tRTW = 0
-icnt_flit_size                        40 # icnt_flit_size
-gpgpu_mem_addr_mapping dramid@8;00000000.00000000.00000000.00000000.0000RRRR.RRRRRRRR.BBBCCCCB.CCSSSSSS # mapping memory address to dram model {dramid@<start bit>;<memory address map>}
-gpgpu_mem_addr_test                    0 # run sweep test to check address mapping for aliased address
-gpgpu_mem_address_mask                    1 # 0 = old addressing mask, 1 = new addressing mask, 2 = new add. mask + flipped bank sel and chip sel bits
-gpgpu_memory_partition_indexing                    0 # 0 = no indexing, 1 = bitwise xoring, 2 = IPoly, 3 = custom indexing
-gpuwattch_xml_file  gpuwattch_gtx480.xml # GPUWattch XML file
-power_simulation_enabled                    1 # Turn on power simulator (1=On, 0=Off)
-power_per_cycle_dump                    0 # Dump detailed power output each cycle
-power_trace_enabled                    0 # produce a file for the power trace (1=On, 0=Off)
-power_trace_zlevel                     6 # Compression level of the power trace output log (0=no comp, 9=highest)
-steady_power_levels_enabled                    0 # produce a file for the steady power levels (1=On, 0=Off)
-steady_state_definition                  8:4 # allowed deviation:number of samples
-gpgpu_max_cycle                        0 # terminates gpu simulation early (0 = no limit)
-gpgpu_max_insn                 100000000 # terminates gpu simulation early (0 = no limit)
-gpgpu_max_cta                          0 # terminates gpu simulation early (0 = no limit)
-gpgpu_max_completed_cta                    0 # terminates gpu simulation early (0 = no limit)
-gpgpu_runtime_stat                   500 # display runtime statistics such as dram utilization {<freq>:<flag>}
-liveness_message_freq                    1 # Minimum number of seconds between simulation liveness messages (0 = always print)
-gpgpu_compute_capability_major                    2 # Major compute capability version number
-gpgpu_compute_capability_minor                    0 # Minor compute capability version number
-gpgpu_flush_l1_cache                    1 # Flush L1 cache at the end of each kernel call
-gpgpu_flush_l2_cache                    0 # Flush L2 cache at the end of each kernel call
-gpgpu_deadlock_detect                    1 # Stop the simulation at deadlock (1=on (default), 0=off)
-gpgpu_ptx_instruction_classification                    0 # if enabled will classify ptx instruction types per kernel (Max 255 kernels now)
-gpgpu_ptx_sim_mode                     0 # Select between Performance (default) or Functional simulation (1)
-gpgpu_clock_domains 700.0:700.0:700.0:924.0 # Clock Domain Frequencies in MhZ {<Core Clock>:<ICNT Clock>:<L2 Clock>:<DRAM Clock>}
-gpgpu_max_concurrent_kernel                    8 # maximum kernels that can run concurrently on GPU
-gpgpu_cflog_interval                    0 # Interval between each snapshot in control flow logger
-visualizer_enabled                     0 # Turn on visualizer output (1=On, 0=Off)
-visualizer_outputfile                 NULL # Specifies the output log file for visualizer
-visualizer_zlevel                      6 # Compression level of the visualizer output log (0=no comp, 9=highest)
-gpgpu_stack_size_limit                 1024 # GPU thread stack size
-gpgpu_heap_size_limit              8388608 # GPU malloc heap size 
-gpgpu_runtime_sync_depth_limit                    2 # GPU device runtime synchronize depth
-gpgpu_runtime_pending_launch_count_limit                 2048 # GPU device runtime pending launch count
-trace_enabled                          0 # Turn on traces
-trace_components                    none # comma seperated list of traces to enable. Complete list found in trace_streams.tup. Default none
-trace_sampling_core                    0 # The core which is printed using CORE_DPRINTF. Default 0
-trace_sampling_memory_partition                   -1 # The memory partition which is printed using MEMPART_DPRINTF. Default -1 (i.e. all)
-enable_ptx_file_line_stats                    1 # Turn on PTX source line statistic profiling. (1 = On)
-ptx_line_stats_filename gpgpu_inst_stats.txt # Output file for PTX source line statistics.
-gpgpu_kernel_launch_latency                    0 # Kernel launch latency in cycles. Default: 0
-gpgpu_cdp_enabled                      0 # Turn on CDP
-gpgpu_TB_launch_latency                    0 # thread block launch latency in cycles. Default: 0
DRAM Timing Options:
nbk                                    16 # number of banks
CCD                                     2 # column to column delay
RRD                                     6 # minimal delay between activation of rows in different banks
RCD                                    12 # row to column delay
RAS                                    28 # time needed to activate row
RP                                     12 # time needed to precharge (deactivate) row
RC                                     40 # row cycle time
CDLR                                    5 # switching from write to read (changes tWTR)
WR                                     12 # last data-in to row precharge
CL                                     12 # CAS latency
WL                                      4 # Write latency
nbkgrp                                  4 # number of bank groups
CCDL                                    3 # column to column delay between accesses to different bank groups
RTPL                                    2 # read to precharge delay between accesses to different bank groups
Total number of memory sub partition = 12
addr_dec_mask[CHIP]  = 0000000000000000 	high:64 low:0
addr_dec_mask[BK]    = 000000000000e100 	high:16 low:8
addr_dec_mask[ROW]   = 000000000fff0000 	high:28 low:16
addr_dec_mask[COL]   = 0000000000001eff 	high:13 low:0
addr_dec_mask[BURST] = 000000000000003f 	high:6 low:0
sub_partition_id_mask = 0000000000000100
GPGPU-Sim uArch: clock freqs: 700000000.000000:700000000.000000:700000000.000000:924000000.000000
GPGPU-Sim uArch: clock periods: 0.00000000142857142857:0.00000000142857142857:0.00000000142857142857:0.00000000108225108225
*** Initializing Memory Statistics ***
GPGPU-Sim uArch: interconnect node map (shaderID+MemID to icntID)
GPGPU-Sim uArch: Memory nodes ID start from index: 15
GPGPU-Sim uArch:    0   1   2   3   4
GPGPU-Sim uArch:    5   6   7   8   9
GPGPU-Sim uArch:   10  11  12  13  14
GPGPU-Sim uArch:   15  16  17  18  19
GPGPU-Sim uArch:   20  21  22  23  24
GPGPU-Sim uArch:   25  26
GPGPU-Sim uArch: interconnect node reverse map (icntID to shaderID+MemID)
GPGPU-Sim uArch: Memory nodes start from ID: 15
GPGPU-Sim uArch:    0   1   2   3   4
GPGPU-Sim uArch:    5   6   7   8   9
GPGPU-Sim uArch:   10  11  12  13  14
GPGPU-Sim uArch:   15  16  17  18  19
GPGPU-Sim uArch:   20  21  22  23  24
GPGPU-Sim uArch:   25  26
435525749f501211bc37f180010eb43f  /code/rodinia/HS/hotspot-rodinia-3.1
Extracting PTX file and ptxas options    1: hotspot-rodinia-3.1.sm_30.ptx -arch=sm_30
Extracting PTX file and ptxas options    2: hotspot-rodinia-3.2.sm_35.ptx -arch=sm_35
Extracting PTX file and ptxas options    3: hotspot-rodinia-3.3.sm_50.ptx -arch=sm_50
Extracting PTX file and ptxas options    4: hotspot-rodinia-3.4.sm_60.ptx -arch=sm_60
Extracting PTX file and ptxas options    5: hotspot-rodinia-3.5.sm_62.ptx -arch=sm_62
GPGPU-Sim uArch: performance model initialization complete.
self exe links to: /code/rodinia/HS/hotspot-rodinia-3.1
self exe links to: /code/rodinia/HS/hotspot-rodinia-3.1
10.1
GPGPU-Sim PTX: __cudaRegisterFatBinary, fat_cubin_handle = 1, filename=default
self exe links to: /code/rodinia/HS/hotspot-rodinia-3.1
Running md5sum using "md5sum /code/rodinia/HS/hotspot-rodinia-3.1 "
self exe links to: /code/rodinia/HS/hotspot-rodinia-3.1
Extracting specific PTX file named hotspot-rodinia-3.1.sm_30.ptx 
Extracting specific PTX file named hotspot-rodinia-3.2.sm_35.ptx 
Extracting specific PTX file named hotspot-rodinia-3.3.sm_50.ptx 
Extracting specific PTX file named hotspot-rodinia-3.4.sm_60.ptx 
Extracting specific PTX file named hotspot-rodinia-3.5.sm_62.ptx 
GPGPU-Sim PTX: __cudaRegisterFunction _Z14calculate_tempiPfS_S_iiiiffffff : hostFun 0x0x401380, fat_cubin_handle = 1
GPGPU-Sim PTX: Parsing hotspot-rodinia-3.1.sm_30.ptx
GPGPU-Sim PTX: allocating shared region for "_ZZ14calculate_tempiPfS_S_iiiiffffffE12temp_on_cuda" from 0x0 to 0x400 (shared memory space)
GPGPU-Sim PTX: allocating shared region for "_ZZ14calculate_tempiPfS_S_iiiiffffffE13power_on_cuda" from 0x400 to 0x800 (shared memory space)
GPGPU-Sim PTX: allocating shared region for "_ZZ14calculate_tempiPfS_S_iiiiffffffE6temp_t" from 0x800 to 0xc00 (shared memory space)
GPGPU-Sim PTX: instruction assembly for function '_Z14calculate_tempiPfS_S_iiiiffffff'...   done.
GPGPU-Sim PTX: finished parsing EMBEDDED .ptx file hotspot-rodinia-3.1.sm_30.ptx
GPGPU-Sim PTX: Parsing hotspot-rodinia-3.2.sm_35.ptx
GPGPU-Sim PTX: Warning %p0 was declared previous at hotspot-rodinia-3.1.sm_30.ptx:35 skipping new declaration
GPGPU-Sim PTX: Warning %p1 was declared previous at hotspot-rodinia-3.1.sm_30.ptx:35 skipping new declaration
GPGPU-Sim PTX: Warning %p2 was declared previous at hotspot-rodinia-3.1.sm_30.ptx:35 skipping new declaration
GPGPU-Sim PTX: Warning %p3 was declared previous at hotspot-rodinia-3.1.sm_30.ptx:35 skipping new declaration
GPGPU-Sim PTX: Warning %p4 was declared previous at hotspot-rodinia-3.1.sm_30.ptx:35 skipping new declaration
GPGPU-Sim PTX: Warning %p5 was declared previous at hotspot-rodinia-3.1.sm_30.ptx:35 skipping new declaration
GPGPU-Sim PTX: Warning %p6 was declared previous at hotspot-rodinia-3.1.sm_30.ptx:35 skipping new declaration
GPGPU-Sim PTX: Warning %p7 was declared previous at hotspot-rodinia-3.1.sm_30.ptx:35 skipping new declaration
GPGPU-Sim PTX: Warning %p8 was declared previous at hotspot-rodinia-3.1.sm_30.ptx:35 skipping new declaration
GPGPU-Sim PTX: Warning %p9 was declared previous at hotspot-rodinia-3.1.sm_30.ptx:35 skipping new declaration
GPGPU-Sim PTX: Warning %p10 was declared previous at hotspot-rodinia-3.1.sm_30.ptx:35 skipping new declaration
GPGPU-Sim PTX: Warning %p11 was declared previous at hotspot-rodinia-3.1.sm_30.ptx:35 skipping new declaration
GPGPU-Sim PTX: Warning %p12 was declared previous at hotspot-rodinia-3.1.sm_30.ptx:35 skipping new declaration
GPGPU-Sim PTX: Warning %p13 was declared previous at hotspot-rodinia-3.1.sm_30.ptx:35 skipping new declaration
GPGPU-Sim PTX: Warning %p14 was declared previous at hotspot-rodinia-3.1.sm_30.ptx:35 skipping new declaration
GPGPU-Sim PTX: Warning %p15 was declared previous at hotspot-rodinia-3.1.sm_30.ptx:35 skipping new declaration
GPGPU-Sim PTX: Warning %p16 was declared previous at hotspot-rodinia-3.1.sm_30.ptx:35 skipping new declaration
GPGPU-Sim PTX: Warning %p17 was declared previous at hotspot-rodinia-3.1.sm_30.ptx:35 skipping new declaration
GPGPU-Sim PTX: Warning %p18 was declared previous at hotspot-rodinia-3.1.sm_30.ptx:35 skipping new declaration
GPGPU-Sim PTX: Warning %p19 was declared previous at hotspot-rodinia-3.1.sm_30.ptx:35 skipping new declaration
GPGPU-Sim PTX: Warning %p20 was declared previous at hotspot-rodinia-3.1.sm_30.ptx:35 skipping new declaration
GPGPU-Sim PTX: Warning %p21 was declared previous at hotspot-rodinia-3.1.sm_30.ptx:35 skipping new declaration
GPGPU-Sim PTX: Warning %p22 was declared previous at hotspot-rodinia-3.1.sm_30.ptx:35 skipping new declaration
GPGPU-Sim PTX: Warning %p23 was declared previous at hotspot-rodinia-3.1.sm_30.ptx:35 skipping new declaration
GPGPU-Sim PTX: Warning %p24 was declared previous at hotspot-rodinia-3.1.sm_30.ptx:35 skipping new declaration
GPGPU-Sim PTX: Warning %p25 was declared previous at hotspot-rodinia-3.1.sm_30.ptx:35 skipping new declaration
GPGPU-Sim PTX: Warning %p26 was declared previous at hotspot-rodinia-3.1.sm_30.ptx:35 skipping new declaration
GPGPU-Sim PTX: Warning %p27 was declared previous at hotspot-rodinia-3.1.sm_30.ptx:35 skipping new declaration
GPGPU-Sim PTX: Warning %p28 was declared previous at hotspot-rodinia-3.1.sm_30.ptx:35 skipping new declaration
GPGPU-Sim PTX: Warning %p29 was declared previous at hotspot-rodinia-3.1.sm_30.ptx:35 skipping new declaration
GPGPU-Sim PTX: Warning %p30 was declared previous at hotspot-rodinia-3.1.sm_30.ptx:35 skipping new declaration
GPGPU-Sim PTX: Warning %rs0 was declared previous at hotspot-rodinia-3.1.sm_30.ptx:36 skipping new declaration
GPGPU-Sim PTX: Warning %rs1 was declared previous at hotspot-rodinia-3.1.sm_30.ptx:36 skipping new declaration
GPGPU-Sim PTX: Warning %rs2 was declared previous at hotspot-rodinia-3.1.sm_30.ptx:36 skipping new declaration
GPGPU-Sim PTX: Warning %rs3 was declared previous at hotspot-rodinia-3.1.sm_30.ptx:36 skipping new declaration
GPGPU-Sim PTX: Warning %rs4 was declared previous at hotspot-rodinia-3.1.sm_30.ptx:36 skipping new declaration
GPGPU-Sim PTX: Warning %rs5 was declared previous at hotspot-rodinia-3.1.sm_30.ptx:36 skipping new declaration
GPGPU-Sim PTX: Warning %rs6 was declared previous at hotspot-rodinia-3.1.sm_30.ptx:36 skipping new declaration
GPGPU-Sim PTX: Warning %rs7 was declared previous at hotspot-rodinia-3.1.sm_30.ptx:36 skipping new declaration
GPGPU-Sim PTX: Warning %rs8 was declared previous at hotspot-rodinia-3.1.sm_30.ptx:36 skipping new declaration
GPGPU-Sim PTX: Warning %rs9 was declared previous at hotspot-rodinia-3.1.sm_30.ptx:36 skipping new declaration
GPGPU-Sim PTX: Warning %f0 was declared previous at hotspot-rodinia-3.1.sm_30.ptx:37 skipping new declaration
GPGPU-Sim PTX: Warning %f1 was declared previous at hotspot-rodinia-3.1.sm_30.ptx:37 skipping new declaration
GPGPU-Sim PTX: Warning %f2 was declared previous at hotspot-rodinia-3.1.sm_30.ptx:37 skipping new declaration
GPGPU-Sim PTX: Warning %f3 was declared previous at hotspot-rodinia-3.1.sm_30.ptx:37 skipping new declaration
GPGPU-Sim PTX: Warning %f4 was declared previous at hotspot-rodinia-3.1.sm_30.ptx:37 skipping new declaration
GPGPU-Sim PTX: Warning %f5 was declared previous at hotspot-rodinia-3.1.sm_30.ptx:37 skipping new declaration
GPGPU-Sim PTX: Warning %f6 was declared previous at hotspot-rodinia-3.1.sm_30.ptx:37 skipping new declaration
GPGPU-Sim PTX: Warning %f7 was declared previous at hotspot-rodinia-3.1.sm_30.ptx:37 skipping new declaration
GPGPU-Sim PTX: Warning %f8 was declared previous at hotspot-rodinia-3.1.sm_30.ptx:37 skipping new declaration
GPGPU-Sim PTX: Warning %f9 was declared previous at hotspot-rodinia-3.1.sm_30.ptx:37 skipping new declaration
GPGPU-Sim PTX: Warning %f10 was declared previous at hotspot-rodinia-3.1.sm_30.ptx:37 skipping new declaration
GPGPU-Sim PTX: Warning %f11 was declared previous at hotspot-rodinia-3.1.sm_30.ptx:37 skipping new declaration
GPGPU-Sim PTX: Warning %f12 was declared previous at hotspot-rodinia-3.1.sm_30.ptx:37 skipping new declaration
GPGPU-Sim PTX: Warning %f13 was declared previous at hotspot-rodinia-3.1.sm_30.ptx:37 skipping new declaration
GPGPU-Sim PTX: Warning %f14 was declared previous at hotspot-rodinia-3.1.sm_30.ptx:37 skipping new declaration
GPGPU-Sim PTX: Warning %f15 was declared previous at hotspot-rodinia-3.1.sm_30.ptx:37 skipping new declaration
GPGPU-Sim PTX: Warning %f16 was declared previous at hotspot-rodinia-3.1.sm_30.ptx:37 skipping new declaration
GPGPU-Sim PTX: Warning %f17 was declared previous at hotspot-rodinia-3.1.sm_30.ptx:37 skipping new declaration
GPGPU-Sim PTX: Warning %f18 was declared previous at hotspot-rodinia-3.1.sm_30.ptx:37 skipping new declaration
GPGPU-Sim PTX: Warning %f19 was declared previous at hotspot-rodinia-3.1.sm_30.ptx:37 skipping new declaration
GPGPU-Sim PTX: Warning %f20 was declared previous at hotspot-rodinia-3.1.sm_30.ptx:37 skipping new declaration
GPGPU-Sim PTX: Warning %f21 was declared previous at hotspot-rodinia-3.1.sm_30.ptx:37 skipping new declaration
GPGPU-Sim PTX: Warning %f22 was declared previous at hotspot-rodinia-3.1.sm_30.ptx:37 skipping new declaration
GPGPU-Sim PTX: Warning %f23 was declared previous at hotspot-rodinia-3.1.sm_30.ptx:37 skipping new declaration
GPGPU-Sim PTX: Warning %f24 was declared previous at hotspot-rodinia-3.1.sm_30.ptx:37 skipping new declaration
GPGPU-Sim PTX: Warning %f25 was declared previous at hotspot-rodinia-3.1.sm_30.ptx:37 skipping new declaration
GPGPU-Sim PTX: Warning %r0 was declared previous at hotspot-rodinia-3.1.sm_30.ptx:38 skipping new declaration
GPGPU-Sim PTX: Warning %r1 was declared previous at hotspot-rodinia-3.1.sm_30.ptx:38 skipping new declaration
GPGPU-Sim PTX: Warning %r2 was declared previous at hotspot-rodinia-3.1.sm_30.ptx:38 skipping new declaration
GPGPU-Sim PTX: Warning %r3 was declared previous at hotspot-rodinia-3.1.sm_30.ptx:38 skipping new declaration
GPGPU-Sim PTX: Warning %r4 was declared previous at hotspot-rodinia-3.1.sm_30.ptx:38 skipping new declaration
GPGPU-Sim PTX: Warning %r5 was declared previous at hotspot-rodinia-3.1.sm_30.ptx:38 skipping new declaration
GPGPU-Sim PTX: Warning %r6 was declared previous at hotspot-rodinia-3.1.sm_30.ptx:38 skipping new declaration
GPGPU-Sim PTX: Warning %r7 was declared previous at hotspot-rodinia-3.1.sm_30.ptx:38 skipping new declaration
GPGPU-Sim PTX: Warning %r8 was declared previous at hotspot-rodinia-3.1.sm_30.ptx:38 skipping new declaration
GPGPU-Sim PTX: Warning %r9 was declared previous at hotspot-rodinia-3.1.sm_30.ptx:38 skipping new declaration
GPGPU-Sim PTX: Warning %r10 was declared previous at hotspot-rodinia-3.1.sm_30.ptx:38 skipping new declaration
GPGPU-Sim PTX: Warning %r11 was declared previous at hotspot-rodinia-3.1.sm_30.ptx:38 skipping new declaration
GPGPU-Sim PTX: Warning %r12 was declared previous at hotspot-rodinia-3.1.sm_30.ptx:38 skipping new declaration
GPGPU-Sim PTX: Warning %r13 was declared previous at hotspot-rodinia-3.1.sm_30.ptx:38 skipping new declaration
GPGPU-Sim PTX: Warning %r14 was declared previous at hotspot-rodinia-3.1.sm_30.ptx:38 skipping new declaration
GPGPU-Sim PTX: Warning %r15 was declared previous at hotspot-rodinia-3.1.sm_30.ptx:38 skipping new declaration
GPGPU-Sim PTX: Warning %r16 was declared previous at hotspot-rodinia-3.1.sm_30.ptx:38 skipping new declaration
GPGPU-Sim PTX: Warning %r17 was declared previous at hotspot-rodinia-3.1.sm_30.ptx:38 skipping new declaration
GPGPU-Sim PTX: Warning %r18 was declared previous at hotspot-rodinia-3.1.sm_30.ptx:38 skipping new declaration
GPGPU-Sim PTX: Warning %r19 was declared previous at hotspot-rodinia-3.1.sm_30.ptx:38 skipping new declaration
GPGPU-Sim PTX: Warning %r20 was declared previous at hotspot-rodinia-3.1.sm_30.ptx:38 skipping new declaration
GPGPU-Sim PTX: Warning %r21 was declared previous at hotspot-rodinia-3.1.sm_30.ptx:38 skipping new declaration
GPGPU-Sim PTX: Warning %r22 was declared previous at hotspot-rodinia-3.1.sm_30.ptx:38 skipping new declaration
GPGPU-Sim PTX: Warning %r23 was declared previous at hotspot-rodinia-3.1.sm_30.ptx:38 skipping new declaration
GPGPU-Sim PTX: Warning %r24 was declared previous at hotspot-rodinia-3.1.sm_30.ptx:38 skipping new declaration
GPGPU-Sim PTX: Warning %r25 was declared previous at hotspot-rodinia-3.1.sm_30.ptx:38 skipping new declaration
GPGPU-Sim PTX: Warning %r26 was declared previous at hotspot-rodinia-3.1.sm_30.ptx:38 skipping new declaration
GPGPU-Sim PTX: Warning %r27 was declared previous at hotspot-rodinia-3.1.sm_30.ptx:38 skipping new declaration
GPGPU-Sim PTX: Warning %r28 was declared previous at hotspot-rodinia-3.1.sm_30.ptx:38 skipping new declaration
GPGPU-Sim PTX: Warning %r29 was declared previous at hotspot-rodinia-3.1.sm_30.ptx:38 skipping new declaration
GPGPU-Sim PTX: Warning %r30 was declared previous at hotspot-rodinia-3.1.sm_30.ptx:38 skipping new declaration
GPGPU-Sim PTX: Warning %r31 was declared previous at hotspot-rodinia-3.1.sm_30.ptx:38 skipping new declaration
GPGPU-Sim PTX: Warning %r32 was declared previous at hotspot-rodinia-3.1.sm_30.ptx:38 skipping new declaration
GPGPU-Sim PTX: Warning %r33 was declared previous at hotspot-rodinia-3.1.sm_30.ptx:38 skipping new declaration
GPGPU-Sim PTX: Warning %r34 was declared previous at hotspot-rodinia-3.1.sm_30.ptx:38 skipping new declaration
GPGPU-Sim PTX: Warning %r35 was declared previous at hotspot-rodinia-3.1.sm_30.ptx:38 skipping new declaration
GPGPU-Sim PTX: Warning %r36 was declared previous at hotspot-rodinia-3.1.sm_30.ptx:38 skipping new declaration
GPGPU-Sim PTX: Warning %r37 was declared previous at hotspot-rodinia-3.1.sm_30.ptx:38 skipping new declaration
GPGPU-Sim PTX: Warning %r38 was declared previous at hotspot-rodinia-3.1.sm_30.ptx:38 skipping new declaration
GPGPU-Sim PTX: Warning %r39 was declared previous at hotspot-rodinia-3.1.sm_30.ptx:38 skipping new declaration
GPGPU-Sim PTX: Warning %r40 was declared previous at hotspot-rodinia-3.1.sm_30.ptx:38 skipping new declaration
GPGPU-Sim PTX: Warning %r41 was declared previous at hotspot-rodinia-3.1.sm_30.ptx:38 skipping new declaration
GPGPU-Sim PTX: Warning %r42 was declared previous at hotspot-rodinia-3.1.sm_30.ptx:38 skipping new declaration
GPGPU-Sim PTX: Warning %r43 was declared previous at hotspot-rodinia-3.1.sm_30.ptx:38 skipping new declaration
GPGPU-Sim PTX: Warning %r44 was declared previous at hotspot-rodinia-3.1.sm_30.ptx:38 skipping new declaration
GPGPU-Sim PTX: Warning %r45 was declared previous at hotspot-rodinia-3.1.sm_30.ptx:38 skipping new declaration
GPGPU-Sim PTX: Warning %r46 was declared previous at hotspot-rodinia-3.1.sm_30.ptx:38 skipping new declaration
GPGPU-Sim PTX: Warning %r47 was declared previous at hotspot-rodinia-3.1.sm_30.ptx:38 skipping new declaration
GPGPU-Sim PTX: Warning %r48 was declared previous at hotspot-rodinia-3.1.sm_30.ptx:38 skipping new declaration
GPGPU-Sim PTX: Warning %r49 was declared previous at hotspot-rodinia-3.1.sm_30.ptx:38 skipping new declaration
GPGPU-Sim PTX: Warning %r50 was declared previous at hotspot-rodinia-3.1.sm_30.ptx:38 skipping new declaration
GPGPU-Sim PTX: Warning %r51 was declared previous at hotspot-rodinia-3.1.sm_30.ptx:38 skipping new declaration
GPGPU-Sim PTX: Warning %r52 was declared previous at hotspot-rodinia-3.1.sm_30.ptx:38 skipping new declaration
GPGPU-Sim PTX: Warning %r53 was declared previous at hotspot-rodinia-3.1.sm_30.ptx:38 skipping new declaration
GPGPU-Sim PTX: Warning %r54 was declared previous at hotspot-rodinia-3.1.sm_30.ptx:38 skipping new declaration
GPGPU-Sim PTX: Warning %r55 was declared previous at hotspot-rodinia-3.1.sm_30.ptx:38 skipping new declaration
GPGPU-Sim PTX: Warning %r56 was declared previous at hotspot-rodinia-3.1.sm_30.ptx:38 skipping new declaration
GPGPU-Sim PTX: Warning %r57 was declared previous at hotspot-rodinia-3.1.sm_30.ptx:38 skipping new declaration
GPGPU-Sim PTX: Warning %r58 was declared previous at hotspot-rodinia-3.1.sm_30.ptx:38 skipping new declaration
GPGPU-Sim PTX: Warning %r59 was declared previous at hotspot-rodinia-3.1.sm_30.ptx:38 skipping new declaration
GPGPU-Sim PTX: Warning %r60 was declared previous at hotspot-rodinia-3.1.sm_30.ptx:38 skipping new declaration
GPGPU-Sim PTX: Warning %r61 was declared previous at hotspot-rodinia-3.1.sm_30.ptx:38 skipping new declaration
GPGPU-Sim PTX: Warning %r62 was declared previous at hotspot-rodinia-3.1.sm_30.ptx:38 skipping new declaration
GPGPU-Sim PTX: Warning %r63 was declared previous at hotspot-rodinia-3.1.sm_30.ptx:38 skipping new declaration
GPGPU-Sim PTX: Warning %r64 was declared previous at hotspot-rodinia-3.1.sm_30.ptx:38 skipping new declaration
GPGPU-Sim PTX: Warning %r65 was declared previous at hotspot-rodinia-3.1.sm_30.ptx:38 skipping new declaration
GPGPU-Sim PTX: Warning %r66 was declared previous at hotspot-rodinia-3.1.sm_30.ptx:38 skipping new declaration
GPGPU-Sim PTX: Warning %r67 was declared previous at hotspot-rodinia-3.1.sm_30.ptx:38 skipping new declaration
GPGPU-Sim PTX: Warning %r68 was declared previous at hotspot-rodinia-3.1.sm_30.ptx:38 skipping new declaration
GPGPU-Sim PTX: Warning %r69 was declared previous at hotspot-rodinia-3.1.sm_30.ptx:38 skipping new declaration
GPGPU-Sim PTX: Warning %r70 was declared previous at hotspot-rodinia-3.1.sm_30.ptx:38 skipping new declaration
GPGPU-Sim PTX: Warning %r71 was declared previous at hotspot-rodinia-3.1.sm_30.ptx:38 skipping new declaration
GPGPU-Sim PTX: Warning %r72 was declared previous at hotspot-rodinia-3.1.sm_30.ptx:38 skipping new declaration
GPGPU-Sim PTX: Warning %r73 was declared previous at hotspot-rodinia-3.1.sm_30.ptx:38 skipping new declaration
GPGPU-Sim PTX: Warning %r74 was declared previous at hotspot-rodinia-3.1.sm_30.ptx:38 skipping new declaration
GPGPU-Sim PTX: Warning %r75 was declared previous at hotspot-rodinia-3.1.sm_30.ptx:38 skipping new declaration
GPGPU-Sim PTX: Warning %r76 was declared previous at hotspot-rodinia-3.1.sm_30.ptx:38 skipping new declaration
GPGPU-Sim PTX: Warning %r77 was declared previous at hotspot-rodinia-3.1.sm_30.ptx:38 skipping new declaration
GPGPU-Sim PTX: Warning %r78 was declared previous at hotspot-rodinia-3.1.sm_30.ptx:38 skipping new declaration
GPGPU-Sim PTX: Warning %r79 was declared previous at hotspot-rodinia-3.1.sm_30.ptx:38 skipping new declaration
GPGPU-Sim PTX: Warning %r80 was declared previous at hotspot-rodinia-3.1.sm_30.ptx:38 skipping new declaration
GPGPU-Sim PTX: Warning %r81 was declared previous at hotspot-rodinia-3.1.sm_30.ptx:38 skipping new declaration
GPGPU-Sim PTX: Warning %r82 was declared previous at hotspot-rodinia-3.1.sm_30.ptx:38 skipping new declaration
GPGPU-Sim PTX: Warning %r83 was declared previous at hotspot-rodinia-3.1.sm_30.ptx:38 skipping new declaration
GPGPU-Sim PTX: Warning %r84 was declared previous at hotspot-rodinia-3.1.sm_30.ptx:38 skipping new declaration
GPGPU-Sim PTX: Warning %fd0 was declared previous at hotspot-rodinia-3.1.sm_30.ptx:39 skipping new declaration
GPGPU-Sim PTX: Warning %fd1 was declared previous at hotspot-rodinia-3.1.sm_30.ptx:39 skipping new declaration
GPGPU-Sim PTX: Warning %fd2 was declared previous at hotspot-rodinia-3.1.sm_30.ptx:39 skipping new declaration
GPGPU-Sim PTX: Warning %fd3 was declared previous at hotspot-rodinia-3.1.sm_30.ptx:39 skipping new declaration
GPGPU-Sim PTX: Warning %fd4 was declared previous at hotspot-rodinia-3.1.sm_30.ptx:39 skipping new declaration
GPGPU-Sim PTX: Warning %fd5 was declared previous at hotspot-rodinia-3.1.sm_30.ptx:39 skipping new declaration
GPGPU-Sim PTX: Warning %fd6 was declared previous at hotspot-rodinia-3.1.sm_30.ptx:39 skipping new declaration
GPGPU-Sim PTX: Warning %fd7 was declared previous at hotspot-rodinia-3.1.sm_30.ptx:39 skipping new declaration
GPGPU-Sim PTX: Warning %fd8 was declared previous at hotspot-rodinia-3.1.sm_30.ptx:39 skipping new declaration
GPGPU-Sim PTX: Warning %fd9 was declared previous at hotspot-rodinia-3.1.sm_30.ptx:39 skipping new declaration
GPGPU-Sim PTX: Warning %fd10 was declared previous at hotspot-rodinia-3.1.sm_30.ptx:39 skipping new declaration
GPGPU-Sim PTX: Warning %fd11 was declared previous at hotspot-rodinia-3.1.sm_30.ptx:39 skipping new declaration
GPGPU-Sim PTX: Warning %fd12 was declared previous at hotspot-rodinia-3.1.sm_30.ptx:39 skipping new declaration
GPGPU-Sim PTX: Warning %fd13 was declared previous at hotspot-rodinia-3.1.sm_30.ptx:39 skipping new declaration
GPGPU-Sim PTX: Warning %fd14 was declared previous at hotspot-rodinia-3.1.sm_30.ptx:39 skipping new declaration
GPGPU-Sim PTX: Warning %fd15 was declared previous at hotspot-rodinia-3.1.sm_30.ptx:39 skipping new declaration
GPGPU-Sim PTX: Warning %rd0 was declared previous at hotspot-rodinia-3.1.sm_30.ptx:40 skipping new declaration
GPGPU-Sim PTX: Warning %rd1 was declared previous at hotspot-rodinia-3.1.sm_30.ptx:40 skipping new declaration
GPGPU-Sim PTX: Warning %rd2 was declared previous at hotspot-rodinia-3.1.sm_30.ptx:40 skipping new declaration
GPGPU-Sim PTX: Warning %rd3 was declared previous at hotspot-rodinia-3.1.sm_30.ptx:40 skipping new declaration
GPGPU-Sim PTX: Warning %rd4 was declared previous at hotspot-rodinia-3.1.sm_30.ptx:40 skipping new declaration
GPGPU-Sim PTX: Warning %rd5 was declared previous at hotspot-rodinia-3.1.sm_30.ptx:40 skipping new declaration
GPGPU-Sim PTX: Warning %rd6 was declared previous at hotspot-rodinia-3.1.sm_30.ptx:40 skipping new declaration
GPGPU-Sim PTX: Warning %rd7 was declared previous at hotspot-rodinia-3.1.sm_30.ptx:40 skipping new declaration
GPGPU-Sim PTX: Warning %rd8 was declared previous at hotspot-rodinia-3.1.sm_30.ptx:40 skipping new declaration
GPGPU-Sim PTX: Warning %rd9 was declared previous at hotspot-rodinia-3.1.sm_30.ptx:40 skipping new declaration
GPGPU-Sim PTX: Warning %rd10 was declared previous at hotspot-rodinia-3.1.sm_30.ptx:40 skipping new declaration
GPGPU-Sim PTX: Warning %rd11 was declared previous at hotspot-rodinia-3.1.sm_30.ptx:40 skipping new declaration
GPGPU-Sim PTX: Warning _ZZ14calculate_tempiPfS_S_iiiiffffffE12temp_on_cuda was declared previous at hotspot-rodinia-3.1.sm_30.ptx:42 skipping new declaration
GPGPU-Sim PTX: Warning _ZZ14calculate_tempiPfS_S_iiiiffffffE13power_on_cuda was declared previous at hotspot-rodinia-3.1.sm_30.ptx:44 skipping new declaration
GPGPU-Sim PTX: Warning _ZZ14calculate_tempiPfS_S_iiiiffffffE6temp_t was declared previous at hotspot-rodinia-3.1.sm_30.ptx:46 skipping new declaration
GPGPU-Sim PTX: instruction assembly for function '_Z14calculate_tempiPfS_S_iiiiffffff'...   done.
GPGPU-Sim PTX: finished parsing EMBEDDED .ptx file hotspot-rodinia-3.2.sm_35.ptx
GPGPU-Sim PTX: Parsing hotspot-rodinia-3.3.sm_50.ptx
GPGPU-Sim PTX: Warning %p0 was declared previous at hotspot-rodinia-3.1.sm_30.ptx:35 skipping new declaration
GPGPU-Sim PTX: Warning %p1 was declared previous at hotspot-rodinia-3.1.sm_30.ptx:35 skipping new declaration
GPGPU-Sim PTX: Warning %p2 was declared previous at hotspot-rodinia-3.1.sm_30.ptx:35 skipping new declaration
GPGPU-Sim PTX: Warning %p3 was declared previous at hotspot-rodinia-3.1.sm_30.ptx:35 skipping new declaration
GPGPU-Sim PTX: Warning %p4 was declared previous at hotspot-rodinia-3.1.sm_30.ptx:35 skipping new declaration
GPGPU-Sim PTX: Warning %p5 was declared previous at hotspot-rodinia-3.1.sm_30.ptx:35 skipping new declaration
GPGPU-Sim PTX: Warning %p6 was declared previous at hotspot-rodinia-3.1.sm_30.ptx:35 skipping new declaration
GPGPU-Sim PTX: Warning %p7 was declared previous at hotspot-rodinia-3.1.sm_30.ptx:35 skipping new declaration
GPGPU-Sim PTX: Warning %p8 was declared previous at hotspot-rodinia-3.1.sm_30.ptx:35 skipping new declaration
GPGPU-Sim PTX: Warning %p9 was declared previous at hotspot-rodinia-3.1.sm_30.ptx:35 skipping new declaration
GPGPU-Sim PTX: Warning %p10 was declared previous at hotspot-rodinia-3.1.sm_30.ptx:35 skipping new declaration
GPGPU-Sim PTX: Warning %p11 was declared previous at hotspot-rodinia-3.1.sm_30.ptx:35 skipping new declaration
GPGPU-Sim PTX: Warning %p12 was declared previous at hotspot-rodinia-3.1.sm_30.ptx:35 skipping new declaration
GPGPU-Sim PTX: Warning %p13 was declared previous at hotspot-rodinia-3.1.sm_30.ptx:35 skipping new declaration
GPGPU-Sim PTX: Warning %p14 was declared previous at hotspot-rodinia-3.1.sm_30.ptx:35 skipping new declaration
GPGPU-Sim PTX: Warning %p15 was declared previous at hotspot-rodinia-3.1.sm_30.ptx:35 skipping new declaration
GPGPU-Sim PTX: Warning %p16 was declared previous at hotspot-rodinia-3.1.sm_30.ptx:35 skipping new declaration
GPGPU-Sim PTX: Warning %p17 was declared previous at hotspot-rodinia-3.1.sm_30.ptx:35 skipping new declaration
GPGPU-Sim PTX: Warning %p18 was declared previous at hotspot-rodinia-3.1.sm_30.ptx:35 skipping new declaration
GPGPU-Sim PTX: Warning %p19 was declared previous at hotspot-rodinia-3.1.sm_30.ptx:35 skipping new declaration
GPGPU-Sim PTX: Warning %p20 was declared previous at hotspot-rodinia-3.1.sm_30.ptx:35 skipping new declaration
GPGPU-Sim PTX: Warning %p21 was declared previous at hotspot-rodinia-3.1.sm_30.ptx:35 skipping new declaration
GPGPU-Sim PTX: Warning %p22 was declared previous at hotspot-rodinia-3.1.sm_30.ptx:35 skipping new declaration
GPGPU-Sim PTX: Warning %p23 was declared previous at hotspot-rodinia-3.1.sm_30.ptx:35 skipping new declaration
GPGPU-Sim PTX: Warning %p24 was declared previous at hotspot-rodinia-3.1.sm_30.ptx:35 skipping new declaration
GPGPU-Sim PTX: Warning %p25 was declared previous at hotspot-rodinia-3.1.sm_30.ptx:35 skipping new declaration
GPGPU-Sim PTX: Warning %p26 was declared previous at hotspot-rodinia-3.1.sm_30.ptx:35 skipping new declaration
GPGPU-Sim PTX: Warning %p27 was declared previous at hotspot-rodinia-3.1.sm_30.ptx:35 skipping new declaration
GPGPU-Sim PTX: Warning %p28 was declared previous at hotspot-rodinia-3.1.sm_30.ptx:35 skipping new declaration
GPGPU-Sim PTX: Warning %p29 was declared previous at hotspot-rodinia-3.1.sm_30.ptx:35 skipping new declaration
GPGPU-Sim PTX: Warning %p30 was declared previous at hotspot-rodinia-3.1.sm_30.ptx:35 skipping new declaration
GPGPU-Sim PTX: Warning %rs0 was declared previous at hotspot-rodinia-3.1.sm_30.ptx:36 skipping new declaration
GPGPU-Sim PTX: Warning %rs1 was declared previous at hotspot-rodinia-3.1.sm_30.ptx:36 skipping new declaration
GPGPU-Sim PTX: Warning %rs2 was declared previous at hotspot-rodinia-3.1.sm_30.ptx:36 skipping new declaration
GPGPU-Sim PTX: Warning %rs3 was declared previous at hotspot-rodinia-3.1.sm_30.ptx:36 skipping new declaration
GPGPU-Sim PTX: Warning %rs4 was declared previous at hotspot-rodinia-3.1.sm_30.ptx:36 skipping new declaration
GPGPU-Sim PTX: Warning %rs5 was declared previous at hotspot-rodinia-3.1.sm_30.ptx:36 skipping new declaration
GPGPU-Sim PTX: Warning %rs6 was declared previous at hotspot-rodinia-3.1.sm_30.ptx:36 skipping new declaration
GPGPU-Sim PTX: Warning %rs7 was declared previous at hotspot-rodinia-3.1.sm_30.ptx:36 skipping new declaration
GPGPU-Sim PTX: Warning %rs8 was declared previous at hotspot-rodinia-3.1.sm_30.ptx:36 skipping new declaration
GPGPU-Sim PTX: Warning %rs9 was declared previous at hotspot-rodinia-3.1.sm_30.ptx:36 skipping new declaration
GPGPU-Sim PTX: Warning %f0 was declared previous at hotspot-rodinia-3.1.sm_30.ptx:37 skipping new declaration
GPGPU-Sim PTX: Warning %f1 was declared previous at hotspot-rodinia-3.1.sm_30.ptx:37 skipping new declaration
GPGPU-Sim PTX: Warning %f2 was declared previous at hotspot-rodinia-3.1.sm_30.ptx:37 skipping new declaration
GPGPU-Sim PTX: Warning %f3 was declared previous at hotspot-rodinia-3.1.sm_30.ptx:37 skipping new declaration
GPGPU-Sim PTX: Warning %f4 was declared previous at hotspot-rodinia-3.1.sm_30.ptx:37 skipping new declaration
GPGPU-Sim PTX: Warning %f5 was declared previous at hotspot-rodinia-3.1.sm_30.ptx:37 skipping new declaration
GPGPU-Sim PTX: Warning %f6 was declared previous at hotspot-rodinia-3.1.sm_30.ptx:37 skipping new declaration
GPGPU-Sim PTX: Warning %f7 was declared previous at hotspot-rodinia-3.1.sm_30.ptx:37 skipping new declaration
GPGPU-Sim PTX: Warning %f8 was declared previous at hotspot-rodinia-3.1.sm_30.ptx:37 skipping new declaration
GPGPU-Sim PTX: Warning %f9 was declared previous at hotspot-rodinia-3.1.sm_30.ptx:37 skipping new declaration
GPGPU-Sim PTX: Warning %f10 was declared previous at hotspot-rodinia-3.1.sm_30.ptx:37 skipping new declaration
GPGPU-Sim PTX: Warning %f11 was declared previous at hotspot-rodinia-3.1.sm_30.ptx:37 skipping new declaration
GPGPU-Sim PTX: Warning %f12 was declared previous at hotspot-rodinia-3.1.sm_30.ptx:37 skipping new declaration
GPGPU-Sim PTX: Warning %f13 was declared previous at hotspot-rodinia-3.1.sm_30.ptx:37 skipping new declaration
GPGPU-Sim PTX: Warning %f14 was declared previous at hotspot-rodinia-3.1.sm_30.ptx:37 skipping new declaration
GPGPU-Sim PTX: Warning %f15 was declared previous at hotspot-rodinia-3.1.sm_30.ptx:37 skipping new declaration
GPGPU-Sim PTX: Warning %f16 was declared previous at hotspot-rodinia-3.1.sm_30.ptx:37 skipping new declaration
GPGPU-Sim PTX: Warning %f17 was declared previous at hotspot-rodinia-3.1.sm_30.ptx:37 skipping new declaration
GPGPU-Sim PTX: Warning %f18 was declared previous at hotspot-rodinia-3.1.sm_30.ptx:37 skipping new declaration
GPGPU-Sim PTX: Warning %f19 was declared previous at hotspot-rodinia-3.1.sm_30.ptx:37 skipping new declaration
GPGPU-Sim PTX: Warning %f20 was declared previous at hotspot-rodinia-3.1.sm_30.ptx:37 skipping new declaration
GPGPU-Sim PTX: Warning %f21 was declared previous at hotspot-rodinia-3.1.sm_30.ptx:37 skipping new declaration
GPGPU-Sim PTX: Warning %f22 was declared previous at hotspot-rodinia-3.1.sm_30.ptx:37 skipping new declaration
GPGPU-Sim PTX: Warning %f23 was declared previous at hotspot-rodinia-3.1.sm_30.ptx:37 skipping new declaration
GPGPU-Sim PTX: Warning %f24 was declared previous at hotspot-rodinia-3.1.sm_30.ptx:37 skipping new declaration
GPGPU-Sim PTX: Warning %f25 was declared previous at hotspot-rodinia-3.1.sm_30.ptx:37 skipping new declaration
GPGPU-Sim PTX: Warning %r0 was declared previous at hotspot-rodinia-3.1.sm_30.ptx:38 skipping new declaration
GPGPU-Sim PTX: Warning %r1 was declared previous at hotspot-rodinia-3.1.sm_30.ptx:38 skipping new declaration
GPGPU-Sim PTX: Warning %r2 was declared previous at hotspot-rodinia-3.1.sm_30.ptx:38 skipping new declaration
GPGPU-Sim PTX: Warning %r3 was declared previous at hotspot-rodinia-3.1.sm_30.ptx:38 skipping new declaration
GPGPU-Sim PTX: Warning %r4 was declared previous at hotspot-rodinia-3.1.sm_30.ptx:38 skipping new declaration
GPGPU-Sim PTX: Warning %r5 was declared previous at hotspot-rodinia-3.1.sm_30.ptx:38 skipping new declaration
GPGPU-Sim PTX: Warning %r6 was declared previous at hotspot-rodinia-3.1.sm_30.ptx:38 skipping new declaration
GPGPU-Sim PTX: Warning %r7 was declared previous at hotspot-rodinia-3.1.sm_30.ptx:38 skipping new declaration
GPGPU-Sim PTX: Warning %r8 was declared previous at hotspot-rodinia-3.1.sm_30.ptx:38 skipping new declaration
GPGPU-Sim PTX: Warning %r9 was declared previous at hotspot-rodinia-3.1.sm_30.ptx:38 skipping new declaration
GPGPU-Sim PTX: Warning %r10 was declared previous at hotspot-rodinia-3.1.sm_30.ptx:38 skipping new declaration
GPGPU-Sim PTX: Warning %r11 was declared previous at hotspot-rodinia-3.1.sm_30.ptx:38 skipping new declaration
GPGPU-Sim PTX: Warning %r12 was declared previous at hotspot-rodinia-3.1.sm_30.ptx:38 skipping new declaration
GPGPU-Sim PTX: Warning %r13 was declared previous at hotspot-rodinia-3.1.sm_30.ptx:38 skipping new declaration
GPGPU-Sim PTX: Warning %r14 was declared previous at hotspot-rodinia-3.1.sm_30.ptx:38 skipping new declaration
GPGPU-Sim PTX: Warning %r15 was declared previous at hotspot-rodinia-3.1.sm_30.ptx:38 skipping new declaration
GPGPU-Sim PTX: Warning %r16 was declared previous at hotspot-rodinia-3.1.sm_30.ptx:38 skipping new declaration
GPGPU-Sim PTX: Warning %r17 was declared previous at hotspot-rodinia-3.1.sm_30.ptx:38 skipping new declaration
GPGPU-Sim PTX: Warning %r18 was declared previous at hotspot-rodinia-3.1.sm_30.ptx:38 skipping new declaration
GPGPU-Sim PTX: Warning %r19 was declared previous at hotspot-rodinia-3.1.sm_30.ptx:38 skipping new declaration
GPGPU-Sim PTX: Warning %r20 was declared previous at hotspot-rodinia-3.1.sm_30.ptx:38 skipping new declaration
GPGPU-Sim PTX: Warning %r21 was declared previous at hotspot-rodinia-3.1.sm_30.ptx:38 skipping new declaration
GPGPU-Sim PTX: Warning %r22 was declared previous at hotspot-rodinia-3.1.sm_30.ptx:38 skipping new declaration
GPGPU-Sim PTX: Warning %r23 was declared previous at hotspot-rodinia-3.1.sm_30.ptx:38 skipping new declaration
GPGPU-Sim PTX: Warning %r24 was declared previous at hotspot-rodinia-3.1.sm_30.ptx:38 skipping new declaration
GPGPU-Sim PTX: Warning %r25 was declared previous at hotspot-rodinia-3.1.sm_30.ptx:38 skipping new declaration
GPGPU-Sim PTX: Warning %r26 was declared previous at hotspot-rodinia-3.1.sm_30.ptx:38 skipping new declaration
GPGPU-Sim PTX: Warning %r27 was declared previous at hotspot-rodinia-3.1.sm_30.ptx:38 skipping new declaration
GPGPU-Sim PTX: Warning %r28 was declared previous at hotspot-rodinia-3.1.sm_30.ptx:38 skipping new declaration
GPGPU-Sim PTX: Warning %r29 was declared previous at hotspot-rodinia-3.1.sm_30.ptx:38 skipping new declaration
GPGPU-Sim PTX: Warning %r30 was declared previous at hotspot-rodinia-3.1.sm_30.ptx:38 skipping new declaration
GPGPU-Sim PTX: Warning %r31 was declared previous at hotspot-rodinia-3.1.sm_30.ptx:38 skipping new declaration
GPGPU-Sim PTX: Warning %r32 was declared previous at hotspot-rodinia-3.1.sm_30.ptx:38 skipping new declaration
GPGPU-Sim PTX: Warning %r33 was declared previous at hotspot-rodinia-3.1.sm_30.ptx:38 skipping new declaration
GPGPU-Sim PTX: Warning %r34 was declared previous at hotspot-rodinia-3.1.sm_30.ptx:38 skipping new declaration
GPGPU-Sim PTX: Warning %r35 was declared previous at hotspot-rodinia-3.1.sm_30.ptx:38 skipping new declaration
GPGPU-Sim PTX: Warning %r36 was declared previous at hotspot-rodinia-3.1.sm_30.ptx:38 skipping new declaration
GPGPU-Sim PTX: Warning %r37 was declared previous at hotspot-rodinia-3.1.sm_30.ptx:38 skipping new declaration
GPGPU-Sim PTX: Warning %r38 was declared previous at hotspot-rodinia-3.1.sm_30.ptx:38 skipping new declaration
GPGPU-Sim PTX: Warning %r39 was declared previous at hotspot-rodinia-3.1.sm_30.ptx:38 skipping new declaration
GPGPU-Sim PTX: Warning %r40 was declared previous at hotspot-rodinia-3.1.sm_30.ptx:38 skipping new declaration
GPGPU-Sim PTX: Warning %r41 was declared previous at hotspot-rodinia-3.1.sm_30.ptx:38 skipping new declaration
GPGPU-Sim PTX: Warning %r42 was declared previous at hotspot-rodinia-3.1.sm_30.ptx:38 skipping new declaration
GPGPU-Sim PTX: Warning %r43 was declared previous at hotspot-rodinia-3.1.sm_30.ptx:38 skipping new declaration
GPGPU-Sim PTX: Warning %r44 was declared previous at hotspot-rodinia-3.1.sm_30.ptx:38 skipping new declaration
GPGPU-Sim PTX: Warning %r45 was declared previous at hotspot-rodinia-3.1.sm_30.ptx:38 skipping new declaration
GPGPU-Sim PTX: Warning %r46 was declared previous at hotspot-rodinia-3.1.sm_30.ptx:38 skipping new declaration
GPGPU-Sim PTX: Warning %r47 was declared previous at hotspot-rodinia-3.1.sm_30.ptx:38 skipping new declaration
GPGPU-Sim PTX: Warning %r48 was declared previous at hotspot-rodinia-3.1.sm_30.ptx:38 skipping new declaration
GPGPU-Sim PTX: Warning %r49 was declared previous at hotspot-rodinia-3.1.sm_30.ptx:38 skipping new declaration
GPGPU-Sim PTX: Warning %r50 was declared previous at hotspot-rodinia-3.1.sm_30.ptx:38 skipping new declaration
GPGPU-Sim PTX: Warning %r51 was declared previous at hotspot-rodinia-3.1.sm_30.ptx:38 skipping new declaration
GPGPU-Sim PTX: Warning %r52 was declared previous at hotspot-rodinia-3.1.sm_30.ptx:38 skipping new declaration
GPGPU-Sim PTX: Warning %r53 was declared previous at hotspot-rodinia-3.1.sm_30.ptx:38 skipping new declaration
GPGPU-Sim PTX: Warning %r54 was declared previous at hotspot-rodinia-3.1.sm_30.ptx:38 skipping new declaration
GPGPU-Sim PTX: Warning %r55 was declared previous at hotspot-rodinia-3.1.sm_30.ptx:38 skipping new declaration
GPGPU-Sim PTX: Warning %r56 was declared previous at hotspot-rodinia-3.1.sm_30.ptx:38 skipping new declaration
GPGPU-Sim PTX: Warning %r57 was declared previous at hotspot-rodinia-3.1.sm_30.ptx:38 skipping new declaration
GPGPU-Sim PTX: Warning %r58 was declared previous at hotspot-rodinia-3.1.sm_30.ptx:38 skipping new declaration
GPGPU-Sim PTX: Warning %r59 was declared previous at hotspot-rodinia-3.1.sm_30.ptx:38 skipping new declaration
GPGPU-Sim PTX: Warning %r60 was declared previous at hotspot-rodinia-3.1.sm_30.ptx:38 skipping new declaration
GPGPU-Sim PTX: Warning %r61 was declared previous at hotspot-rodinia-3.1.sm_30.ptx:38 skipping new declaration
GPGPU-Sim PTX: Warning %r62 was declared previous at hotspot-rodinia-3.1.sm_30.ptx:38 skipping new declaration
GPGPU-Sim PTX: Warning %r63 was declared previous at hotspot-rodinia-3.1.sm_30.ptx:38 skipping new declaration
GPGPU-Sim PTX: Warning %r64 was declared previous at hotspot-rodinia-3.1.sm_30.ptx:38 skipping new declaration
GPGPU-Sim PTX: Warning %r65 was declared previous at hotspot-rodinia-3.1.sm_30.ptx:38 skipping new declaration
GPGPU-Sim PTX: Warning %r66 was declared previous at hotspot-rodinia-3.1.sm_30.ptx:38 skipping new declaration
GPGPU-Sim PTX: Warning %r67 was declared previous at hotspot-rodinia-3.1.sm_30.ptx:38 skipping new declaration
GPGPU-Sim PTX: Warning %r68 was declared previous at hotspot-rodinia-3.1.sm_30.ptx:38 skipping new declaration
GPGPU-Sim PTX: Warning %r69 was declared previous at hotspot-rodinia-3.1.sm_30.ptx:38 skipping new declaration
GPGPU-Sim PTX: Warning %r70 was declared previous at hotspot-rodinia-3.1.sm_30.ptx:38 skipping new declaration
GPGPU-Sim PTX: Warning %r71 was declared previous at hotspot-rodinia-3.1.sm_30.ptx:38 skipping new declaration
GPGPU-Sim PTX: Warning %r72 was declared previous at hotspot-rodinia-3.1.sm_30.ptx:38 skipping new declaration
GPGPU-Sim PTX: Warning %r73 was declared previous at hotspot-rodinia-3.1.sm_30.ptx:38 skipping new declaration
GPGPU-Sim PTX: Warning %r74 was declared previous at hotspot-rodinia-3.1.sm_30.ptx:38 skipping new declaration
GPGPU-Sim PTX: Warning %r75 was declared previous at hotspot-rodinia-3.1.sm_30.ptx:38 skipping new declaration
GPGPU-Sim PTX: Warning %r76 was declared previous at hotspot-rodinia-3.1.sm_30.ptx:38 skipping new declaration
GPGPU-Sim PTX: Warning %r77 was declared previous at hotspot-rodinia-3.1.sm_30.ptx:38 skipping new declaration
GPGPU-Sim PTX: Warning %r78 was declared previous at hotspot-rodinia-3.1.sm_30.ptx:38 skipping new declaration
GPGPU-Sim PTX: Warning %r79 was declared previous at hotspot-rodinia-3.1.sm_30.ptx:38 skipping new declaration
GPGPU-Sim PTX: Warning %r80 was declared previous at hotspot-rodinia-3.1.sm_30.ptx:38 skipping new declaration
GPGPU-Sim PTX: Warning %r81 was declared previous at hotspot-rodinia-3.1.sm_30.ptx:38 skipping new declaration
GPGPU-Sim PTX: Warning %r82 was declared previous at hotspot-rodinia-3.1.sm_30.ptx:38 skipping new declaration
GPGPU-Sim PTX: Warning %r83 was declared previous at hotspot-rodinia-3.1.sm_30.ptx:38 skipping new declaration
GPGPU-Sim PTX: Warning %r84 was declared previous at hotspot-rodinia-3.1.sm_30.ptx:38 skipping new declaration
GPGPU-Sim PTX: Warning %fd0 was declared previous at hotspot-rodinia-3.1.sm_30.ptx:39 skipping new declaration
GPGPU-Sim PTX: Warning %fd1 was declared previous at hotspot-rodinia-3.1.sm_30.ptx:39 skipping new declaration
GPGPU-Sim PTX: Warning %fd2 was declared previous at hotspot-rodinia-3.1.sm_30.ptx:39 skipping new declaration
GPGPU-Sim PTX: Warning %fd3 was declared previous at hotspot-rodinia-3.1.sm_30.ptx:39 skipping new declaration
GPGPU-Sim PTX: Warning %fd4 was declared previous at hotspot-rodinia-3.1.sm_30.ptx:39 skipping new declaration
GPGPU-Sim PTX: Warning %fd5 was declared previous at hotspot-rodinia-3.1.sm_30.ptx:39 skipping new declaration
GPGPU-Sim PTX: Warning %fd6 was declared previous at hotspot-rodinia-3.1.sm_30.ptx:39 skipping new declaration
GPGPU-Sim PTX: Warning %fd7 was declared previous at hotspot-rodinia-3.1.sm_30.ptx:39 skipping new declaration
GPGPU-Sim PTX: Warning %fd8 was declared previous at hotspot-rodinia-3.1.sm_30.ptx:39 skipping new declaration
GPGPU-Sim PTX: Warning %fd9 was declared previous at hotspot-rodinia-3.1.sm_30.ptx:39 skipping new declaration
GPGPU-Sim PTX: Warning %fd10 was declared previous at hotspot-rodinia-3.1.sm_30.ptx:39 skipping new declaration
GPGPU-Sim PTX: Warning %fd11 was declared previous at hotspot-rodinia-3.1.sm_30.ptx:39 skipping new declaration
GPGPU-Sim PTX: Warning %fd12 was declared previous at hotspot-rodinia-3.1.sm_30.ptx:39 skipping new declaration
GPGPU-Sim PTX: Warning %fd13 was declared previous at hotspot-rodinia-3.1.sm_30.ptx:39 skipping new declaration
GPGPU-Sim PTX: Warning %fd14 was declared previous at hotspot-rodinia-3.1.sm_30.ptx:39 skipping new declaration
GPGPU-Sim PTX: Warning %fd15 was declared previous at hotspot-rodinia-3.1.sm_30.ptx:39 skipping new declaration
GPGPU-Sim PTX: Warning %rd0 was declared previous at hotspot-rodinia-3.1.sm_30.ptx:40 skipping new declaration
GPGPU-Sim PTX: Warning %rd1 was declared previous at hotspot-rodinia-3.1.sm_30.ptx:40 skipping new declaration
GPGPU-Sim PTX: Warning %rd2 was declared previous at hotspot-rodinia-3.1.sm_30.ptx:40 skipping new declaration
GPGPU-Sim PTX: Warning %rd3 was declared previous at hotspot-rodinia-3.1.sm_30.ptx:40 skipping new declaration
GPGPU-Sim PTX: Warning %rd4 was declared previous at hotspot-rodinia-3.1.sm_30.ptx:40 skipping new declaration
GPGPU-Sim PTX: Warning %rd5 was declared previous at hotspot-rodinia-3.1.sm_30.ptx:40 skipping new declaration
GPGPU-Sim PTX: Warning %rd6 was declared previous at hotspot-rodinia-3.1.sm_30.ptx:40 skipping new declaration
GPGPU-Sim PTX: Warning %rd7 was declared previous at hotspot-rodinia-3.1.sm_30.ptx:40 skipping new declaration
GPGPU-Sim PTX: Warning %rd8 was declared previous at hotspot-rodinia-3.1.sm_30.ptx:40 skipping new declaration
GPGPU-Sim PTX: Warning %rd9 was declared previous at hotspot-rodinia-3.1.sm_30.ptx:40 skipping new declaration
GPGPU-Sim PTX: Warning %rd10 was declared previous at hotspot-rodinia-3.1.sm_30.ptx:40 skipping new declaration
GPGPU-Sim PTX: Warning %rd11 was declared previous at hotspot-rodinia-3.1.sm_30.ptx:40 skipping new declaration
GPGPU-Sim PTX: Warning _ZZ14calculate_tempiPfS_S_iiiiffffffE12temp_on_cuda was declared previous at hotspot-rodinia-3.1.sm_30.ptx:42 skipping new declaration
GPGPU-Sim PTX: Warning _ZZ14calculate_tempiPfS_S_iiiiffffffE13power_on_cuda was declared previous at hotspot-rodinia-3.1.sm_30.ptx:44 skipping new declaration
GPGPU-Sim PTX: Warning _ZZ14calculate_tempiPfS_S_iiiiffffffE6temp_t was declared previous at hotspot-rodinia-3.1.sm_30.ptx:46 skipping new declaration
GPGPU-Sim PTX: instruction assembly for function '_Z14calculate_tempiPfS_S_iiiiffffff'...   done.
GPGPU-Sim PTX: finished parsing EMBEDDED .ptx file hotspot-rodinia-3.3.sm_50.ptx
GPGPU-Sim PTX: Parsing hotspot-rodinia-3.4.sm_60.ptx
GPGPU-Sim PTX: Warning %p0 was declared previous at hotspot-rodinia-3.1.sm_30.ptx:35 skipping new declaration
GPGPU-Sim PTX: Warning %p1 was declared previous at hotspot-rodinia-3.1.sm_30.ptx:35 skipping new declaration
GPGPU-Sim PTX: Warning %p2 was declared previous at hotspot-rodinia-3.1.sm_30.ptx:35 skipping new declaration
GPGPU-Sim PTX: Warning %p3 was declared previous at hotspot-rodinia-3.1.sm_30.ptx:35 skipping new declaration
GPGPU-Sim PTX: Warning %p4 was declared previous at hotspot-rodinia-3.1.sm_30.ptx:35 skipping new declaration
GPGPU-Sim PTX: Warning %p5 was declared previous at hotspot-rodinia-3.1.sm_30.ptx:35 skipping new declaration
GPGPU-Sim PTX: Warning %p6 was declared previous at hotspot-rodinia-3.1.sm_30.ptx:35 skipping new declaration
GPGPU-Sim PTX: Warning %p7 was declared previous at hotspot-rodinia-3.1.sm_30.ptx:35 skipping new declaration
GPGPU-Sim PTX: Warning %p8 was declared previous at hotspot-rodinia-3.1.sm_30.ptx:35 skipping new declaration
GPGPU-Sim PTX: Warning %p9 was declared previous at hotspot-rodinia-3.1.sm_30.ptx:35 skipping new declaration
GPGPU-Sim PTX: Warning %p10 was declared previous at hotspot-rodinia-3.1.sm_30.ptx:35 skipping new declaration
GPGPU-Sim PTX: Warning %p11 was declared previous at hotspot-rodinia-3.1.sm_30.ptx:35 skipping new declaration
GPGPU-Sim PTX: Warning %p12 was declared previous at hotspot-rodinia-3.1.sm_30.ptx:35 skipping new declaration
GPGPU-Sim PTX: Warning %p13 was declared previous at hotspot-rodinia-3.1.sm_30.ptx:35 skipping new declaration
GPGPU-Sim PTX: Warning %p14 was declared previous at hotspot-rodinia-3.1.sm_30.ptx:35 skipping new declaration
GPGPU-Sim PTX: Warning %p15 was declared previous at hotspot-rodinia-3.1.sm_30.ptx:35 skipping new declaration
GPGPU-Sim PTX: Warning %p16 was declared previous at hotspot-rodinia-3.1.sm_30.ptx:35 skipping new declaration
GPGPU-Sim PTX: Warning %p17 was declared previous at hotspot-rodinia-3.1.sm_30.ptx:35 skipping new declaration
GPGPU-Sim PTX: Warning %p18 was declared previous at hotspot-rodinia-3.1.sm_30.ptx:35 skipping new declaration
GPGPU-Sim PTX: Warning %p19 was declared previous at hotspot-rodinia-3.1.sm_30.ptx:35 skipping new declaration
GPGPU-Sim PTX: Warning %p20 was declared previous at hotspot-rodinia-3.1.sm_30.ptx:35 skipping new declaration
GPGPU-Sim PTX: Warning %p21 was declared previous at hotspot-rodinia-3.1.sm_30.ptx:35 skipping new declaration
GPGPU-Sim PTX: Warning %p22 was declared previous at hotspot-rodinia-3.1.sm_30.ptx:35 skipping new declaration
GPGPU-Sim PTX: Warning %p23 was declared previous at hotspot-rodinia-3.1.sm_30.ptx:35 skipping new declaration
GPGPU-Sim PTX: Warning %p24 was declared previous at hotspot-rodinia-3.1.sm_30.ptx:35 skipping new declaration
GPGPU-Sim PTX: Warning %p25 was declared previous at hotspot-rodinia-3.1.sm_30.ptx:35 skipping new declaration
GPGPU-Sim PTX: Warning %p26 was declared previous at hotspot-rodinia-3.1.sm_30.ptx:35 skipping new declaration
GPGPU-Sim PTX: Warning %p27 was declared previous at hotspot-rodinia-3.1.sm_30.ptx:35 skipping new declaration
GPGPU-Sim PTX: Warning %p28 was declared previous at hotspot-rodinia-3.1.sm_30.ptx:35 skipping new declaration
GPGPU-Sim PTX: Warning %p29 was declared previous at hotspot-rodinia-3.1.sm_30.ptx:35 skipping new declaration
GPGPU-Sim PTX: Warning %p30 was declared previous at hotspot-rodinia-3.1.sm_30.ptx:35 skipping new declaration
GPGPU-Sim PTX: Warning %rs0 was declared previous at hotspot-rodinia-3.1.sm_30.ptx:36 skipping new declaration
GPGPU-Sim PTX: Warning %rs1 was declared previous at hotspot-rodinia-3.1.sm_30.ptx:36 skipping new declaration
GPGPU-Sim PTX: Warning %rs2 was declared previous at hotspot-rodinia-3.1.sm_30.ptx:36 skipping new declaration
GPGPU-Sim PTX: Warning %rs3 was declared previous at hotspot-rodinia-3.1.sm_30.ptx:36 skipping new declaration
GPGPU-Sim PTX: Warning %rs4 was declared previous at hotspot-rodinia-3.1.sm_30.ptx:36 skipping new declaration
GPGPU-Sim PTX: Warning %rs5 was declared previous at hotspot-rodinia-3.1.sm_30.ptx:36 skipping new declaration
GPGPU-Sim PTX: Warning %rs6 was declared previous at hotspot-rodinia-3.1.sm_30.ptx:36 skipping new declaration
GPGPU-Sim PTX: Warning %rs7 was declared previous at hotspot-rodinia-3.1.sm_30.ptx:36 skipping new declaration
GPGPU-Sim PTX: Warning %rs8 was declared previous at hotspot-rodinia-3.1.sm_30.ptx:36 skipping new declaration
GPGPU-Sim PTX: Warning %rs9 was declared previous at hotspot-rodinia-3.1.sm_30.ptx:36 skipping new declaration
GPGPU-Sim PTX: Warning %f0 was declared previous at hotspot-rodinia-3.1.sm_30.ptx:37 skipping new declaration
GPGPU-Sim PTX: Warning %f1 was declared previous at hotspot-rodinia-3.1.sm_30.ptx:37 skipping new declaration
GPGPU-Sim PTX: Warning %f2 was declared previous at hotspot-rodinia-3.1.sm_30.ptx:37 skipping new declaration
GPGPU-Sim PTX: Warning %f3 was declared previous at hotspot-rodinia-3.1.sm_30.ptx:37 skipping new declaration
GPGPU-Sim PTX: Warning %f4 was declared previous at hotspot-rodinia-3.1.sm_30.ptx:37 skipping new declaration
GPGPU-Sim PTX: Warning %f5 was declared previous at hotspot-rodinia-3.1.sm_30.ptx:37 skipping new declaration
GPGPU-Sim PTX: Warning %f6 was declared previous at hotspot-rodinia-3.1.sm_30.ptx:37 skipping new declaration
GPGPU-Sim PTX: Warning %f7 was declared previous at hotspot-rodinia-3.1.sm_30.ptx:37 skipping new declaration
GPGPU-Sim PTX: Warning %f8 was declared previous at hotspot-rodinia-3.1.sm_30.ptx:37 skipping new declaration
GPGPU-Sim PTX: Warning %f9 was declared previous at hotspot-rodinia-3.1.sm_30.ptx:37 skipping new declaration
GPGPU-Sim PTX: Warning %f10 was declared previous at hotspot-rodinia-3.1.sm_30.ptx:37 skipping new declaration
GPGPU-Sim PTX: Warning %f11 was declared previous at hotspot-rodinia-3.1.sm_30.ptx:37 skipping new declaration
GPGPU-Sim PTX: Warning %f12 was declared previous at hotspot-rodinia-3.1.sm_30.ptx:37 skipping new declaration
GPGPU-Sim PTX: Warning %f13 was declared previous at hotspot-rodinia-3.1.sm_30.ptx:37 skipping new declaration
GPGPU-Sim PTX: Warning %f14 was declared previous at hotspot-rodinia-3.1.sm_30.ptx:37 skipping new declaration
GPGPU-Sim PTX: Warning %f15 was declared previous at hotspot-rodinia-3.1.sm_30.ptx:37 skipping new declaration
GPGPU-Sim PTX: Warning %f16 was declared previous at hotspot-rodinia-3.1.sm_30.ptx:37 skipping new declaration
GPGPU-Sim PTX: Warning %f17 was declared previous at hotspot-rodinia-3.1.sm_30.ptx:37 skipping new declaration
GPGPU-Sim PTX: Warning %f18 was declared previous at hotspot-rodinia-3.1.sm_30.ptx:37 skipping new declaration
GPGPU-Sim PTX: Warning %f19 was declared previous at hotspot-rodinia-3.1.sm_30.ptx:37 skipping new declaration
GPGPU-Sim PTX: Warning %f20 was declared previous at hotspot-rodinia-3.1.sm_30.ptx:37 skipping new declaration
GPGPU-Sim PTX: Warning %f21 was declared previous at hotspot-rodinia-3.1.sm_30.ptx:37 skipping new declaration
GPGPU-Sim PTX: Warning %f22 was declared previous at hotspot-rodinia-3.1.sm_30.ptx:37 skipping new declaration
GPGPU-Sim PTX: Warning %f23 was declared previous at hotspot-rodinia-3.1.sm_30.ptx:37 skipping new declaration
GPGPU-Sim PTX: Warning %f24 was declared previous at hotspot-rodinia-3.1.sm_30.ptx:37 skipping new declaration
GPGPU-Sim PTX: Warning %f25 was declared previous at hotspot-rodinia-3.1.sm_30.ptx:37 skipping new declaration
GPGPU-Sim PTX: Warning %r0 was declared previous at hotspot-rodinia-3.1.sm_30.ptx:38 skipping new declaration
GPGPU-Sim PTX: Warning %r1 was declared previous at hotspot-rodinia-3.1.sm_30.ptx:38 skipping new declaration
GPGPU-Sim PTX: Warning %r2 was declared previous at hotspot-rodinia-3.1.sm_30.ptx:38 skipping new declaration
GPGPU-Sim PTX: Warning %r3 was declared previous at hotspot-rodinia-3.1.sm_30.ptx:38 skipping new declaration
GPGPU-Sim PTX: Warning %r4 was declared previous at hotspot-rodinia-3.1.sm_30.ptx:38 skipping new declaration
GPGPU-Sim PTX: Warning %r5 was declared previous at hotspot-rodinia-3.1.sm_30.ptx:38 skipping new declaration
GPGPU-Sim PTX: Warning %r6 was declared previous at hotspot-rodinia-3.1.sm_30.ptx:38 skipping new declaration
GPGPU-Sim PTX: Warning %r7 was declared previous at hotspot-rodinia-3.1.sm_30.ptx:38 skipping new declaration
GPGPU-Sim PTX: Warning %r8 was declared previous at hotspot-rodinia-3.1.sm_30.ptx:38 skipping new declaration
GPGPU-Sim PTX: Warning %r9 was declared previous at hotspot-rodinia-3.1.sm_30.ptx:38 skipping new declaration
GPGPU-Sim PTX: Warning %r10 was declared previous at hotspot-rodinia-3.1.sm_30.ptx:38 skipping new declaration
GPGPU-Sim PTX: Warning %r11 was declared previous at hotspot-rodinia-3.1.sm_30.ptx:38 skipping new declaration
GPGPU-Sim PTX: Warning %r12 was declared previous at hotspot-rodinia-3.1.sm_30.ptx:38 skipping new declaration
GPGPU-Sim PTX: Warning %r13 was declared previous at hotspot-rodinia-3.1.sm_30.ptx:38 skipping new declaration
GPGPU-Sim PTX: Warning %r14 was declared previous at hotspot-rodinia-3.1.sm_30.ptx:38 skipping new declaration
GPGPU-Sim PTX: Warning %r15 was declared previous at hotspot-rodinia-3.1.sm_30.ptx:38 skipping new declaration
GPGPU-Sim PTX: Warning %r16 was declared previous at hotspot-rodinia-3.1.sm_30.ptx:38 skipping new declaration
GPGPU-Sim PTX: Warning %r17 was declared previous at hotspot-rodinia-3.1.sm_30.ptx:38 skipping new declaration
GPGPU-Sim PTX: Warning %r18 was declared previous at hotspot-rodinia-3.1.sm_30.ptx:38 skipping new declaration
GPGPU-Sim PTX: Warning %r19 was declared previous at hotspot-rodinia-3.1.sm_30.ptx:38 skipping new declaration
GPGPU-Sim PTX: Warning %r20 was declared previous at hotspot-rodinia-3.1.sm_30.ptx:38 skipping new declaration
GPGPU-Sim PTX: Warning %r21 was declared previous at hotspot-rodinia-3.1.sm_30.ptx:38 skipping new declaration
GPGPU-Sim PTX: Warning %r22 was declared previous at hotspot-rodinia-3.1.sm_30.ptx:38 skipping new declaration
GPGPU-Sim PTX: Warning %r23 was declared previous at hotspot-rodinia-3.1.sm_30.ptx:38 skipping new declaration
GPGPU-Sim PTX: Warning %r24 was declared previous at hotspot-rodinia-3.1.sm_30.ptx:38 skipping new declaration
GPGPU-Sim PTX: Warning %r25 was declared previous at hotspot-rodinia-3.1.sm_30.ptx:38 skipping new declaration
GPGPU-Sim PTX: Warning %r26 was declared previous at hotspot-rodinia-3.1.sm_30.ptx:38 skipping new declaration
GPGPU-Sim PTX: Warning %r27 was declared previous at hotspot-rodinia-3.1.sm_30.ptx:38 skipping new declaration
GPGPU-Sim PTX: Warning %r28 was declared previous at hotspot-rodinia-3.1.sm_30.ptx:38 skipping new declaration
GPGPU-Sim PTX: Warning %r29 was declared previous at hotspot-rodinia-3.1.sm_30.ptx:38 skipping new declaration
GPGPU-Sim PTX: Warning %r30 was declared previous at hotspot-rodinia-3.1.sm_30.ptx:38 skipping new declaration
GPGPU-Sim PTX: Warning %r31 was declared previous at hotspot-rodinia-3.1.sm_30.ptx:38 skipping new declaration
GPGPU-Sim PTX: Warning %r32 was declared previous at hotspot-rodinia-3.1.sm_30.ptx:38 skipping new declaration
GPGPU-Sim PTX: Warning %r33 was declared previous at hotspot-rodinia-3.1.sm_30.ptx:38 skipping new declaration
GPGPU-Sim PTX: Warning %r34 was declared previous at hotspot-rodinia-3.1.sm_30.ptx:38 skipping new declaration
GPGPU-Sim PTX: Warning %r35 was declared previous at hotspot-rodinia-3.1.sm_30.ptx:38 skipping new declaration
GPGPU-Sim PTX: Warning %r36 was declared previous at hotspot-rodinia-3.1.sm_30.ptx:38 skipping new declaration
GPGPU-Sim PTX: Warning %r37 was declared previous at hotspot-rodinia-3.1.sm_30.ptx:38 skipping new declaration
GPGPU-Sim PTX: Warning %r38 was declared previous at hotspot-rodinia-3.1.sm_30.ptx:38 skipping new declaration
GPGPU-Sim PTX: Warning %r39 was declared previous at hotspot-rodinia-3.1.sm_30.ptx:38 skipping new declaration
GPGPU-Sim PTX: Warning %r40 was declared previous at hotspot-rodinia-3.1.sm_30.ptx:38 skipping new declaration
GPGPU-Sim PTX: Warning %r41 was declared previous at hotspot-rodinia-3.1.sm_30.ptx:38 skipping new declaration
GPGPU-Sim PTX: Warning %r42 was declared previous at hotspot-rodinia-3.1.sm_30.ptx:38 skipping new declaration
[...]
dram[1]:        679       615       691       377       485       515       632       527       727       372       405       361       412       348       368       376
dram[2]:        694       679       700       667       620       635       615       640       434       517       369       409       330       402       331       433
dram[3]:        635       698       641       690       516       553       527       642       432       636       362       357       375       362       376       378
dram[4]:        644       754       452       748       509       563       518       540       474       462       389       354       350       345       354       349
dram[5]:        629       630       498       644       430       512       585       570       613       437       361       383       412       391       372       391
Memory Partition 0: 
Cache L2_bank_000:
MSHR contents

Cache L2_bank_001:
MSHR contents

In Dram Latency Queue (total = 0): 
DRAM[0]: 16 bks, busW=4 BL=8 CL=12, tRRD=6 tCCD=2, tRCD=12 tRAS=28 tRP=12 tRC=40
n_cmd=167914 n_nop=152520 n_act=1231 n_pre=1215 n_ref_event=21071312 n_req=11952 n_rd=10932 n_rd_L2_A=0 n_write=0 n_wr_bk=2040 bw_util=0.1545
n_activity=75192 dram_eff=0.345
bk0: 652a 164210i bk1: 640a 164009i bk2: 640a 164225i bk3: 640a 163986i bk4: 680a 163820i bk5: 680a 163702i bk6: 768a 163798i bk7: 768a 163872i bk8: 768a 163609i bk9: 768a 163830i bk10: 688a 164133i bk11: 680a 164077i bk12: 640a 164257i bk13: 640a 164199i bk14: 640a 164178i bk15: 640a 164344i 

------------------------------------------------------------------------

Row_Buffer_Locality = 0.897339
Row_Buffer_Locality_read = 0.941365
Row_Buffer_Locality_write = 0.425490
Bank_Level_Parallism = 1.251268
Bank_Level_Parallism_Col = 0.000000
Bank_Level_Parallism_Ready = 1.031180
write_to_read_ratio_blp_rw_average = 0.000000
GrpLevelPara = 0.000000 

BW Util details:
bwutil = 0.154508 
total_CMD = 167914 
util_bw = 25944 
Wasted_Col = 20119 
Wasted_Row = 14006 
Idle = 107845 

BW Util Bottlenecks: 
RCDc_limit = 6661 
RCDWRc_limit = 3475 
WTRc_limit = 1155 
RTWc_limit = 2820 
CCDLc_limit = 9097 
rwq = 0 
CCDLc_limit_alone = 8816 
WTRc_limit_alone = 1118 
RTWc_limit_alone = 2576 

Commands details: 
total_CMD = 167914 
n_nop = 152520 
Read = 10932 
Write = 0 
L2_Alloc = 0 
L2_WB = 2040 
n_act = 1231 
n_pre = 1215 
n_ref = 21071312 
n_req = 11952 
total_req = 12972 

Dual Bus Interface Util: 
issued_total_row = 2446 
issued_total_col = 12972 
Row_Bus_Util =  0.014567 
CoL_Bus_Util = 0.077254 
Either_Row_CoL_Bus_Util = 0.091678 
Issued_on_Two_Bus_Simul_Util = 0.000143 
issued_two_Eff = 0.001559 
queue_avg = 1.167824 


dram_util_bins: 0 0 0 0 0 0 0 0 0 0
dram_eff_bins: 0 0 0 0 0 0 0 0 0 0
mrqq: max=37 avg=1.16782
Memory Partition 1: 
Cache L2_bank_002:
MSHR contents

Cache L2_bank_003:
MSHR contents

In Dram Latency Queue (total = 0): 
DRAM[1]: 16 bks, busW=4 BL=8 CL=12, tRRD=6 tCCD=2, tRCD=12 tRAS=28 tRP=12 tRC=40
n_cmd=167914 n_nop=152552 n_act=1216 n_pre=1200 n_ref_event=0 n_req=11950 n_rd=10928 n_rd_L2_A=0 n_write=0 n_wr_bk=2044 bw_util=0.1545
n_activity=75172 dram_eff=0.3451
bk0: 648a 164027i bk1: 640a 164231i bk2: 640a 164231i bk3: 640a 164052i bk4: 680a 164003i bk5: 680a 164273i bk6: 768a 163712i bk7: 768a 163795i bk8: 768a 163880i bk9: 768a 164120i bk10: 688a 164161i bk11: 680a 164045i bk12: 640a 164014i bk13: 640a 164326i bk14: 640a 164205i bk15: 640a 164157i 

------------------------------------------------------------------------

Row_Buffer_Locality = 0.898577
Row_Buffer_Locality_read = 0.942075
Row_Buffer_Locality_write = 0.433464
Bank_Level_Parallism = 1.241848
Bank_Level_Parallism_Col = 1.185712
Bank_Level_Parallism_Ready = 1.033236
write_to_read_ratio_blp_rw_average = 0.232766
GrpLevelPara = 1.154481 

BW Util details:
bwutil = 0.154508 
total_CMD = 167914 
util_bw = 25944 
Wasted_Col = 19892 
Wasted_Row = 13898 
Idle = 108180 

BW Util Bottlenecks: 
RCDc_limit = 6560 
RCDWRc_limit = 3494 
WTRc_limit = 973 
RTWc_limit = 2700 
CCDLc_limit = 9099 
rwq = 0 
CCDLc_limit_alone = 8849 
WTRc_limit_alone = 956 
RTWc_limit_alone = 2467 

Commands details: 
total_CMD = 167914 
n_nop = 152552 
Read = 10928 
Write = 0 
L2_Alloc = 0 
L2_WB = 2044 
n_act = 1216 
n_pre = 1200 
n_ref = 0 
n_req = 11950 
total_req = 12972 

Dual Bus Interface Util: 
issued_total_row = 2416 
issued_total_col = 12972 
Row_Bus_Util =  0.014388 
CoL_Bus_Util = 0.077254 
Either_Row_CoL_Bus_Util = 0.091487 
Issued_on_Two_Bus_Simul_Util = 0.000155 
issued_two_Eff = 0.001692 
queue_avg = 1.136296 


dram_util_bins: 0 0 0 0 0 0 0 0 0 0
dram_eff_bins: 0 0 0 0 0 0 0 0 0 0
mrqq: max=25 avg=1.1363
Memory Partition 2: 
Cache L2_bank_004:
MSHR contents

Cache L2_bank_005:
MSHR contents

In Dram Latency Queue (total = 0): 
DRAM[2]: 16 bks, busW=4 BL=8 CL=12, tRRD=6 tCCD=2, tRCD=12 tRAS=28 tRP=12 tRC=40
n_cmd=167914 n_nop=152485 n_act=1248 n_pre=1232 n_ref_event=0 n_req=11956 n_rd=10936 n_rd_L2_A=0 n_write=0 n_wr_bk=2040 bw_util=0.1546
n_activity=75239 dram_eff=0.3449
bk0: 648a 163671i bk1: 640a 164181i bk2: 640a 163568i bk3: 640a 164485i bk4: 680a 163853i bk5: 688a 163735i bk6: 768a 163654i bk7: 768a 163710i bk8: 768a 163858i bk9: 768a 163771i bk10: 688a 163935i bk11: 680a 164228i bk12: 640a 164172i bk13: 640a 164263i bk14: 640a 163823i bk15: 640a 164159i 

------------------------------------------------------------------------

Row_Buffer_Locality = 0.895952
Row_Buffer_Locality_read = 0.940563
Row_Buffer_Locality_write = 0.417647
Bank_Level_Parallism = 1.273105
Bank_Level_Parallism_Col = 1.210368
Bank_Level_Parallism_Ready = 1.040592
write_to_read_ratio_blp_rw_average = 0.237046
GrpLevelPara = 1.176491 

BW Util details:
bwutil = 0.154555 
total_CMD = 167914 
util_bw = 25952 
Wasted_Col = 19951 
Wasted_Row = 14085 
Idle = 107926 

BW Util Bottlenecks: 
RCDc_limit = 6766 
RCDWRc_limit = 3534 
WTRc_limit = 983 
RTWc_limit = 2967 
CCDLc_limit = 8821 
rwq = 0 
CCDLc_limit_alone = 8576 
WTRc_limit_alone = 954 
RTWc_limit_alone = 2751 

Commands details: 
total_CMD = 167914 
n_nop = 152485 
Read = 10936 
Write = 0 
L2_Alloc = 0 
L2_WB = 2040 
n_act = 1248 
n_pre = 1232 
n_ref = 0 
n_req = 11956 
total_req = 12976 

Dual Bus Interface Util: 
issued_total_row = 2480 
issued_total_col = 12976 
Row_Bus_Util =  0.014769 
CoL_Bus_Util = 0.077278 
Either_Row_CoL_Bus_Util = 0.091886 
Issued_on_Two_Bus_Simul_Util = 0.000161 
issued_two_Eff = 0.001750 
queue_avg = 1.191765 


dram_util_bins: 0 0 0 0 0 0 0 0 0 0
dram_eff_bins: 0 0 0 0 0 0 0 0 0 0
mrqq: max=34 avg=1.19176
Memory Partition 3: 
Cache L2_bank_006:
MSHR contents

Cache L2_bank_007:
MSHR contents

In Dram Latency Queue (total = 0): 
DRAM[3]: 16 bks, busW=4 BL=8 CL=12, tRRD=6 tCCD=2, tRCD=12 tRAS=28 tRP=12 tRC=40
n_cmd=167914 n_nop=152465 n_act=1254 n_pre=1238 n_ref_event=0 n_req=11958 n_rd=10936 n_rd_L2_A=0 n_write=0 n_wr_bk=2044 bw_util=0.1546
n_activity=75336 dram_eff=0.3446
bk0: 648a 163829i bk1: 640a 164390i bk2: 640a 163603i bk3: 640a 164489i bk4: 680a 163593i bk5: 688a 164187i bk6: 768a 163734i bk7: 768a 163779i bk8: 768a 163751i bk9: 768a 163886i bk10: 688a 163986i bk11: 680a 164136i bk12: 640a 164086i bk13: 640a 164126i bk14: 640a 163970i bk15: 640a 164169i 

------------------------------------------------------------------------

Row_Buffer_Locality = 0.895467
Row_Buffer_Locality_read = 0.940380
Row_Buffer_Locality_write = 0.414873
Bank_Level_Parallism = 1.262717
Bank_Level_Parallism_Col = 0.000000
Bank_Level_Parallism_Ready = 1.027831
write_to_read_ratio_blp_rw_average = 0.000000
GrpLevelPara = 0.000000 

BW Util details:
bwutil = 0.154603 
total_CMD = 167914 
util_bw = 25960 
Wasted_Col = 20183 
Wasted_Row = 13818 
Idle = 107953 

BW Util Bottlenecks: 
RCDc_limit = 6728 
RCDWRc_limit = 3493 
WTRc_limit = 1056 
RTWc_limit = 3107 
CCDLc_limit = 8991 
rwq = 0 
CCDLc_limit_alone = 8749 
WTRc_limit_alone = 1024 
RTWc_limit_alone = 2897 

Commands details: 
total_CMD = 167914 
n_nop = 152465 
Read = 10936 
Write = 0 
L2_Alloc = 0 
L2_WB = 2044 
n_act = 1254 
n_pre = 1238 
n_ref = 0 
n_req = 11958 
total_req = 12980 

Dual Bus Interface Util: 
issued_total_row = 2492 
issued_total_col = 12980 
Row_Bus_Util =  0.014841 
CoL_Bus_Util = 0.077301 
Either_Row_CoL_Bus_Util = 0.092005 
Issued_on_Two_Bus_Simul_Util = 0.000137 
issued_two_Eff = 0.001489 
queue_avg = 1.132216 


dram_util_bins: 0 0 0 0 0 0 0 0 0 0
dram_eff_bins: 0 0 0 0 0 0 0 0 0 0
mrqq: max=25 avg=1.13222
Memory Partition 4: 
Cache L2_bank_008:
MSHR contents

Cache L2_bank_009:
MSHR contents

In Dram Latency Queue (total = 0): 
DRAM[4]: 16 bks, busW=4 BL=8 CL=12, tRRD=6 tCCD=2, tRCD=12 tRAS=28 tRP=12 tRC=40
n_cmd=167914 n_nop=152516 n_act=1228 n_pre=1212 n_ref_event=0 n_req=11948 n_rd=10928 n_rd_L2_A=0 n_write=0 n_wr_bk=2040 bw_util=0.1545
n_activity=75857 dram_eff=0.3419
bk0: 644a 164251i bk1: 644a 163794i bk2: 640a 164262i bk3: 640a 163911i bk4: 680a 164123i bk5: 688a 163813i bk6: 768a 164097i bk7: 768a 163809i bk8: 768a 163748i bk9: 768a 163901i bk10: 680a 164288i bk11: 680a 164088i bk12: 640a 164468i bk13: 640a 164036i bk14: 640a 164405i bk15: 640a 164147i 

------------------------------------------------------------------------

Row_Buffer_Locality = 0.897472
Row_Buffer_Locality_read = 0.941435
Row_Buffer_Locality_write = 0.426471
Bank_Level_Parallism = 1.229391
Bank_Level_Parallism_Col = 1.170061
Bank_Level_Parallism_Ready = 1.026892
write_to_read_ratio_blp_rw_average = 0.234253
GrpLevelPara = 1.144864 

BW Util details:
bwutil = 0.154460 
total_CMD = 167914 
util_bw = 25936 
Wasted_Col = 20415 
Wasted_Row = 14076 
Idle = 107487 

BW Util Bottlenecks: 
RCDc_limit = 6713 
RCDWRc_limit = 3537 
WTRc_limit = 1170 
RTWc_limit = 2697 
CCDLc_limit = 9127 
rwq = 0 
CCDLc_limit_alone = 8876 
WTRc_limit_alone = 1149 
RTWc_limit_alone = 2467 

Commands details: 
total_CMD = 167914 
n_nop = 152516 
Read = 10928 
Write = 0 
L2_Alloc = 0 
L2_WB = 2040 
n_act = 1228 
n_pre = 1212 
n_ref = 0 
n_req = 11948 
total_req = 12968 

Dual Bus Interface Util: 
issued_total_row = 2440 
issued_total_col = 12968 
Row_Bus_Util =  0.014531 
CoL_Bus_Util = 0.077230 
Either_Row_CoL_Bus_Util = 0.091702 
Issued_on_Two_Bus_Simul_Util = 0.000060 
issued_two_Eff = 0.000649 
queue_avg = 1.158671 


dram_util_bins: 0 0 0 0 0 0 0 0 0 0
dram_eff_bins: 0 0 0 0 0 0 0 0 0 0
mrqq: max=29 avg=1.15867
Memory Partition 5: 
Cache L2_bank_010:
MSHR contents

Cache L2_bank_011:
MSHR contents

In Dram Latency Queue (total = 0): 
DRAM[5]: 16 bks, busW=4 BL=8 CL=12, tRRD=6 tCCD=2, tRCD=12 tRAS=28 tRP=12 tRC=40
n_cmd=167914 n_nop=152568 n_act=1205 n_pre=1189 n_ref_event=4562280503665652019 n_req=11950 n_rd=10928 n_rd_L2_A=0 n_write=0 n_wr_bk=2044 bw_util=0.1545
n_activity=75472 dram_eff=0.3438
bk0: 640a 164359i bk1: 648a 163793i bk2: 640a 164393i bk3: 640a 163919i bk4: 680a 164181i bk5: 688a 163679i bk6: 768a 163887i bk7: 768a 163965i bk8: 768a 164253i bk9: 768a 163896i bk10: 680a 164193i bk11: 680a 164228i bk12: 640a 164267i bk13: 640a 164081i bk14: 640a 164181i bk15: 640a 164078i 

------------------------------------------------------------------------

Row_Buffer_Locality = 0.899414
Row_Buffer_Locality_read = 0.942533
Row_Buffer_Locality_write = 0.438356
Bank_Level_Parallism = 1.237561
Bank_Level_Parallism_Col = 2.389269
Bank_Level_Parallism_Ready = 1.035264
write_to_read_ratio_blp_rw_average = 0.233590
GrpLevelPara = 1.148622 

BW Util details:
bwutil = 0.154508 
total_CMD = 167914 
util_bw = 25944 
Wasted_Col = 19935 
Wasted_Row = 13962 
Idle = 108073 

BW Util Bottlenecks: 
RCDc_limit = 6579 
RCDWRc_limit = 3438 
WTRc_limit = 907 
RTWc_limit = 2680 
CCDLc_limit = 9082 
rwq = 0 
CCDLc_limit_alone = 8811 
WTRc_limit_alone = 896 
RTWc_limit_alone = 2420 

Commands details: 
total_CMD = 167914 
n_nop = 152568 
Read = 10928 
Write = 0 
L2_Alloc = 0 
L2_WB = 2044 
n_act = 1205 
n_pre = 1189 
n_ref = 4562280503665652019 
n_req = 11950 
total_req = 12972 

Dual Bus Interface Util: 
issued_total_row = 2394 
issued_total_col = 12972 
Row_Bus_Util =  0.014257 
CoL_Bus_Util = 0.077254 
Either_Row_CoL_Bus_Util = 0.091392 
Issued_on_Two_Bus_Simul_Util = 0.000119 
issued_two_Eff = 0.001303 
queue_avg = 1.180503 


dram_util_bins: 0 0 0 0 0 0 0 0 0 0
dram_eff_bins: 0 0 0 0 0 0 0 0 0 0
mrqq: max=32 avg=1.1805

========= L2 cache stats =========
L2_cache_bank[0]: Access = 30607, Miss = 9664, Miss_rate = 0.316, Pending_hits = 8381, Reservation_fails = 415
L2_cache_bank[1]: Access = 31502, Miss = 9689, Miss_rate = 0.308, Pending_hits = 8507, Reservation_fails = 14
L2_cache_bank[2]: Access = 31968, Miss = 9744, Miss_rate = 0.305, Pending_hits = 8214, Reservation_fails = 244
L2_cache_bank[3]: Access = 31897, Miss = 9701, Miss_rate = 0.304, Pending_hits = 8495, Reservation_fails = 0
L2_cache_bank[4]: Access = 31649, Miss = 9693, Miss_rate = 0.306, Pending_hits = 8544, Reservation_fails = 207
L2_cache_bank[5]: Access = 31512, Miss = 9644, Miss_rate = 0.306, Pending_hits = 8349, Reservation_fails = 35
L2_cache_bank[6]: Access = 32035, Miss = 9700, Miss_rate = 0.303, Pending_hits = 8570, Reservation_fails = 141
L2_cache_bank[7]: Access = 33027, Miss = 9735, Miss_rate = 0.295, Pending_hits = 8160, Reservation_fails = 59
L2_cache_bank[8]: Access = 30265, Miss = 9666, Miss_rate = 0.319, Pending_hits = 8411, Reservation_fails = 99
L2_cache_bank[9]: Access = 32749, Miss = 9689, Miss_rate = 0.296, Pending_hits = 8373, Reservation_fails = 160
L2_cache_bank[10]: Access = 31805, Miss = 9741, Miss_rate = 0.306, Pending_hits = 8277, Reservation_fails = 7
L2_cache_bank[11]: Access = 33264, Miss = 9707, Miss_rate = 0.292, Pending_hits = 8614, Reservation_fails = 206
L2_total_cache_accesses = 382280
L2_total_cache_misses = 116373
L2_total_cache_miss_rate = 0.3044
L2_total_cache_pending_hits = 100895
L2_total_cache_reservation_fails = 1587
L2_total_cache_breakdown:
	L2_cache_stats_breakdown[GLOBAL_ACC_R][HIT] = 160441
	L2_cache_stats_breakdown[GLOBAL_ACC_R][HIT_RESERVED] = 100739
	L2_cache_stats_breakdown[GLOBAL_ACC_R][MISS] = 16384
	L2_cache_stats_breakdown[GLOBAL_ACC_R][RESERVATION_FAIL] = 245
	L2_cache_stats_breakdown[GLOBAL_ACC_R][SECTOR_MISS] = 49152
	L2_cache_stats_breakdown[LOCAL_ACC_R][HIT] = 0
	L2_cache_stats_breakdown[LOCAL_ACC_R][HIT_RESERVED] = 0
	L2_cache_stats_breakdown[LOCAL_ACC_R][MISS] = 0
	L2_cache_stats_breakdown[LOCAL_ACC_R][RESERVATION_FAIL] = 0
	L2_cache_stats_breakdown[LOCAL_ACC_R][SECTOR_MISS] = 0
	L2_cache_stats_breakdown[CONST_ACC_R][HIT] = 44
	L2_cache_stats_breakdown[CONST_ACC_R][HIT_RESERVED] = 12
	L2_cache_stats_breakdown[CONST_ACC_R][MISS] = 1
	L2_cache_stats_breakdown[CONST_ACC_R][RESERVATION_FAIL] = 210
	L2_cache_stats_breakdown[CONST_ACC_R][SECTOR_MISS] = 3
	L2_cache_stats_breakdown[TEXTURE_ACC_R][HIT] = 0
	L2_cache_stats_breakdown[TEXTURE_ACC_R][HIT_RESERVED] = 0
	L2_cache_stats_breakdown[TEXTURE_ACC_R][MISS] = 0
	L2_cache_stats_breakdown[TEXTURE_ACC_R][RESERVATION_FAIL] = 0
	L2_cache_stats_breakdown[TEXTURE_ACC_R][SECTOR_MISS] = 0
	L2_cache_stats_breakdown[GLOBAL_ACC_W][HIT] = 3999
	L2_cache_stats_breakdown[GLOBAL_ACC_W][HIT_RESERVED] = 0
	L2_cache_stats_breakdown[GLOBAL_ACC_W][MISS] = 8192
	L2_cache_stats_breakdown[GLOBAL_ACC_W][RESERVATION_FAIL] = 0
	L2_cache_stats_breakdown[GLOBAL_ACC_W][SECTOR_MISS] = 42593
	L2_cache_stats_breakdown[LOCAL_ACC_W][HIT] = 0
	L2_cache_stats_breakdown[LOCAL_ACC_W][HIT_RESERVED] = 0
	L2_cache_stats_breakdown[LOCAL_ACC_W][MISS] = 0
	L2_cache_stats_breakdown[LOCAL_ACC_W][RESERVATION_FAIL] = 0
	L2_cache_stats_breakdown[LOCAL_ACC_W][SECTOR_MISS] = 0
	L2_cache_stats_breakdown[L1_WRBK_ACC][HIT] = 0
	L2_cache_stats_breakdown[L1_WRBK_ACC][HIT_RESERVED] = 0
	L2_cache_stats_breakdown[L1_WRBK_ACC][MISS] = 0
	L2_cache_stats_breakdown[L1_WRBK_ACC][RESERVATION_FAIL] = 0
	L2_cache_stats_breakdown[L1_WRBK_ACC][SECTOR_MISS] = 0
	L2_cache_stats_breakdown[L2_WRBK_ACC][HIT] = 0
	L2_cache_stats_breakdown[L2_WRBK_ACC][HIT_RESERVED] = 0
	L2_cache_stats_breakdown[L2_WRBK_ACC][MISS] = 0
	L2_cache_stats_breakdown[L2_WRBK_ACC][RESERVATION_FAIL] = 0
	L2_cache_stats_breakdown[L2_WRBK_ACC][SECTOR_MISS] = 0
	L2_cache_stats_breakdown[INST_ACC_R][HIT] = 528
	L2_cache_stats_breakdown[INST_ACC_R][HIT_RESERVED] = 144
	L2_cache_stats_breakdown[INST_ACC_R][MISS] = 12
	L2_cache_stats_breakdown[INST_ACC_R][RESERVATION_FAIL] = 1132
	L2_cache_stats_breakdown[INST_ACC_R][SECTOR_MISS] = 36
	L2_cache_stats_breakdown[L1_WR_ALLOC_R][HIT] = 0
	L2_cache_stats_breakdown[L1_WR_ALLOC_R][HIT_RESERVED] = 0
	L2_cache_stats_breakdown[L1_WR_ALLOC_R][MISS] = 0
	L2_cache_stats_breakdown[L1_WR_ALLOC_R][RESERVATION_FAIL] = 0
	L2_cache_stats_breakdown[L1_WR_ALLOC_R][SECTOR_MISS] = 0
	L2_cache_stats_breakdown[L2_WR_ALLOC_R][HIT] = 0
	L2_cache_stats_breakdown[L2_WR_ALLOC_R][HIT_RESERVED] = 0
	L2_cache_stats_breakdown[L2_WR_ALLOC_R][MISS] = 0
	L2_cache_stats_breakdown[L2_WR_ALLOC_R][RESERVATION_FAIL] = 0
	L2_cache_stats_breakdown[L2_WR_ALLOC_R][SECTOR_MISS] = 0
	L2_cache_stats_breakdown[GLOBAL_ACC_R][TOTAL_ACCESS] = 326716
	L2_cache_stats_breakdown[CONST_ACC_R][TOTAL_ACCESS] = 60
	L2_cache_stats_breakdown[GLOBAL_ACC_W][TOTAL_ACCESS] = 54784
	L2_cache_stats_breakdown[INST_ACC_R][TOTAL_ACCESS] = 720
L2_total_cache_reservation_fail_breakdown:
	L2_cache_stats_fail_breakdown[GLOBAL_ACC_R][MISS_QUEUE_FULL] = 38
	L2_cache_stats_fail_breakdown[GLOBAL_ACC_R][MSHR_MERGE_ENRTY_FAIL] = 207
	L2_cache_stats_fail_breakdown[CONST_ACC_R][MSHR_MERGE_ENRTY_FAIL] = 210
	L2_cache_stats_fail_breakdown[INST_ACC_R][MSHR_MERGE_ENRTY_FAIL] = 1132
L2_cache_data_port_util = 0.109
L2_cache_fill_port_util = 0.043

icnt_total_pkts_mem_to_simt=382280
icnt_total_pkts_simt_to_mem=136673
LD_mem_lat_dist  0 0 0 0 0 0 0 0 0 0 0 0 0 0 0 0 0 0 0 0 0 0 0 0 0 0 0
ST_mem_lat_dist  0 0 0 0 0 0 0 0 0 0 0 0 0 0 0 0 0 0 0 0 0 0 0 0 0 0 0
----------------------------Interconnect-DETAILS--------------------------------
Class 0:
Packet latency average = 15.854
	minimum = 5
	maximum = 205
Network latency average = 15.3325
	minimum = 5
	maximum = 188
Slowest packet = 3534
Flit latency average = 14.7588
	minimum = 5
	maximum = 188
Slowest flit = 28298
Fragmentation average = 0
	minimum = 0
	maximum = 0
Injected packet rate average = 0.143045
	minimum = 0.0540846 (at node 12)
	maximum = 0.261493 (at node 26)
Accepted packet rate average = 0.143045
	minimum = 0.067881 (at node 23)
	maximum = 0.212534 (at node 13)
Injected flit rate average = 0.151095
	minimum = 0.0697126 (at node 12)
	maximum = 0.261493 (at node 26)
Accepted flit rate average= 0.151095
	minimum = 0.0867005 (at node 23)
	maximum = 0.212534 (at node 13)
Injected packet length average = 1.05627
Accepted packet length average = 1.05627
Total in-flight flits = 0 (0 measured)
====== Overall Traffic Statistics ======
====== Traffic class 0 ======
Packet latency average = 15.854 (1 samples)
	minimum = 5 (1 samples)
	maximum = 205 (1 samples)
Network latency average = 15.3325 (1 samples)
	minimum = 5 (1 samples)
	maximum = 188 (1 samples)
Flit latency average = 14.7588 (1 samples)
	minimum = 5 (1 samples)
	maximum = 188 (1 samples)
Fragmentation average = 0 (1 samples)
	minimum = 0 (1 samples)
	maximum = 0 (1 samples)
Injected packet rate average = 0.143045 (1 samples)
	minimum = 0.0540846 (1 samples)
	maximum = 0.261493 (1 samples)
Accepted packet rate average = 0.143045 (1 samples)
	minimum = 0.067881 (1 samples)
	maximum = 0.212534 (1 samples)
Injected flit rate average = 0.151095 (1 samples)
	minimum = 0.0697126 (1 samples)
	maximum = 0.261493 (1 samples)
Accepted flit rate average = 0.151095 (1 samples)
	minimum = 0.0867005 (1 samples)
	maximum = 0.212534 (1 samples)
Injected packet size average = 1.05627 (1 samples)
Accepted packet size average = 1.05627 (1 samples)
Hops average = 1 (1 samples)
----------------------------END-of-Interconnect-DETAILS-------------------------


gpgpu_simulation_time = 0 days, 0 hrs, 3 min, 53 sec (233 sec)
gpgpu_simulation_rate = 382918 (inst/sec)
gpgpu_simulation_rate = 545 (cycle/sec)
gpgpu_silicon_slowdown = 1284403x
Ending simulation
GPGPU-Sim: *** exit detected ***
