

        *** GPGPU-Sim Simulator Version 4.0.0  [build gpgpu-sim_git-commit-90ec3399763d7c8512cfe7dc193473086c38ca38_modified_0.0] ***


GPGPU-Sim PTX: simulation mode 0 (can change with PTX_SIM_MODE_FUNC environment variable:
               1=functional simulation only, 0=detailed performance simulator)
GPGPU-Sim PTX: overriding embedded ptx with ptx file (PTX_SIM_USE_PTX_FILE is set)
GPGPU-Sim: Configuration options:

-save_embedded_ptx                      0 # saves ptx files embedded in binary as <n>.ptx
-keep                                   0 # keep intermediate files created by GPGPU-Sim when interfacing with external programs
-gpgpu_ptx_save_converted_ptxplus                    0 # Saved converted ptxplus to a file
-gpgpu_occupancy_sm_number                   20 # The SM number to pass to ptxas when getting register usage for computing GPU occupancy. This parameter is required in the config.
-ptx_opcode_latency_int      4,13,4,5,145,32 # Opcode latencies for integers <ADD,MAX,MUL,MAD,DIV,SHFL>Default 1,1,19,25,145,32
-ptx_opcode_latency_fp          4,13,4,5,39 # Opcode latencies for single precision floating points <ADD,MAX,MUL,MAD,DIV>Default 1,1,1,1,30
-ptx_opcode_latency_dp         8,19,8,8,330 # Opcode latencies for double precision floating points <ADD,MAX,MUL,MAD,DIV>Default 8,8,8,8,335
-ptx_opcode_latency_sfu                    8 # Opcode latencies for SFU instructionsDefault 8
-ptx_opcode_latency_tesnor                   64 # Opcode latencies for Tensor instructionsDefault 64
-ptx_opcode_initiation_int          1,2,2,1,8,4 # Opcode initiation intervals for integers <ADD,MAX,MUL,MAD,DIV,SHFL>Default 1,1,4,4,32,4
-ptx_opcode_initiation_fp            1,2,1,1,4 # Opcode initiation intervals for single precision floating points <ADD,MAX,MUL,MAD,DIV>Default 1,1,1,1,5
-ptx_opcode_initiation_dp         8,16,8,8,130 # Opcode initiation intervals for double precision floating points <ADD,MAX,MUL,MAD,DIV>Default 8,8,8,8,130
-ptx_opcode_initiation_sfu                    8 # Opcode initiation intervals for sfu instructionsDefault 8
-ptx_opcode_initiation_tensor                   64 # Opcode initiation intervals for tensor instructionsDefault 64
-cdp_latency         7200,8000,100,12000,1600 # CDP API latency <cudaStreamCreateWithFlags, cudaGetParameterBufferV2_init_perWarp, cudaGetParameterBufferV2_perKernel, cudaLaunchDeviceV2_init_perWarp, cudaLaunchDevicV2_perKernel>Default 7200,8000,100,12000,1600
-network_mode                           1 # Interconnection network mode
-inter_config_file   config_fermi_islip.icnt # Interconnection network config file
-icnt_in_buffer_limit                   64 # in_buffer_limit
-icnt_out_buffer_limit                   64 # out_buffer_limit
-icnt_subnets                           2 # subnets
-icnt_arbiter_algo                      1 # arbiter_algo
-icnt_verbose                           0 # inct_verbose
-icnt_grant_cycles                      1 # grant_cycles
-gpgpu_ptx_use_cuobjdump                    1 # Use cuobjdump to extract ptx and sass from binaries
-gpgpu_experimental_lib_support                    0 # Try to extract code from cuda libraries [Broken because of unknown cudaGetExportTable]
-checkpoint_option                      0 #  checkpointing flag (0 = no checkpoint)
-checkpoint_kernel                      1 #  checkpointing during execution of which kernel (1- 1st kernel)
-checkpoint_CTA                         0 #  checkpointing after # of CTA (< less than total CTA)
-resume_option                          0 #  resume flag (0 = no resume)
-resume_kernel                          0 #  Resume from which kernel (1= 1st kernel)
-resume_CTA                             0 #  resume from which CTA 
-checkpoint_CTA_t                       0 #  resume from which CTA 
-checkpoint_insn_Y                      0 #  resume from which CTA 
-gpgpu_ptx_convert_to_ptxplus                    0 # Convert SASS (native ISA) to ptxplus and run ptxplus
-gpgpu_ptx_force_max_capability                   20 # Force maximum compute capability
-gpgpu_ptx_inst_debug_to_file                    0 # Dump executed instructions' debug information to file
-gpgpu_ptx_inst_debug_file       inst_debug.txt # Executed instructions' debug output file
-gpgpu_ptx_inst_debug_thread_uid                    1 # Thread UID for executed instructions' debug output
-gpgpu_simd_model                       1 # 1 = post-dominator
-gpgpu_shader_core_pipeline              1536:32 # shader core pipeline config, i.e., {<nthread>:<warpsize>}
-gpgpu_tex_cache:l1  N:4:128:24,L:R:m:N:L,T:128:4,128:2 # per-shader L1 texture cache  (READ-ONLY) config  {<nsets>:<bsize>:<assoc>,<rep>:<wr>:<alloc>:<wr_alloc>,<mshr>:<N>:<merge>,<mq>:<rf>}
-gpgpu_const_cache:l1 N:64:64:2,L:R:f:N:L,S:2:32,4 # per-shader L1 constant memory cache  (READ-ONLY) config  {<nsets>:<bsize>:<assoc>,<rep>:<wr>:<alloc>:<wr_alloc>,<mshr>:<N>:<merge>,<mq>} 
-gpgpu_cache:il1     N:4:128:4,L:R:f:N:L,S:2:32,4 # shader L1 instruction cache config  {<nsets>:<bsize>:<assoc>,<rep>:<wr>:<alloc>:<wr_alloc>,<mshr>:<N>:<merge>,<mq>} 
-gpgpu_cache:dl1     N:32:128:4,L:L:m:N:H,S:64:8,8 # per-shader L1 data cache config  {<nsets>:<bsize>:<assoc>,<rep>:<wr>:<alloc>:<wr_alloc>,<mshr>:<N>:<merge>,<mq> | none}
-gpgpu_l1_banks                         1 # The number of L1 cache banks
-gpgpu_l1_banks_byte_interleaving                   32 # l1 banks byte interleaving granularity
-gpgpu_l1_banks_hashing_function                    0 # l1 banks hashing function
-gpgpu_l1_latency                      35 # L1 Hit Latency
-gpgpu_smem_latency                    26 # smem Latency
-gpgpu_cache:dl1PrefL1                 none # per-shader L1 data cache config  {<nsets>:<bsize>:<assoc>,<rep>:<wr>:<alloc>:<wr_alloc>,<mshr>:<N>:<merge>,<mq> | none}
-gpgpu_cache:dl1PrefShared                 none # per-shader L1 data cache config  {<nsets>:<bsize>:<assoc>,<rep>:<wr>:<alloc>:<wr_alloc>,<mshr>:<N>:<merge>,<mq> | none}
-gpgpu_gmem_skip_L1D                    0 # global memory access skip L1D cache (implements -Xptxas -dlcm=cg, default=no skip)
-gpgpu_perfect_mem                      0 # enable perfect memory mode (no cache miss)
-n_regfile_gating_group                    4 # group of lanes that should be read/written together)
-gpgpu_clock_gated_reg_file                    0 # enable clock gated reg file for power calculations
-gpgpu_clock_gated_lanes                    0 # enable clock gated lanes for power calculations
-gpgpu_shader_registers                32768 # Number of registers per shader core. Limits number of concurrent CTAs. (default 8192)
-gpgpu_registers_per_block                 8192 # Maximum number of registers per CTA. (default 8192)
-gpgpu_ignore_resources_limitation                    0 # gpgpu_ignore_resources_limitation (default 0)
-gpgpu_shader_cta                       8 # Maximum number of concurrent CTAs in shader (default 8)
-gpgpu_num_cta_barriers                   16 # Maximum number of named barriers per CTA (default 16)
-gpgpu_n_clusters                      15 # number of processing clusters
-gpgpu_n_cores_per_cluster                    1 # number of simd cores per cluster
-gpgpu_n_cluster_ejection_buffer_size                   32 # number of packets in ejection buffer
-gpgpu_n_ldst_response_buffer_size                    2 # number of response packets in ld/st unit ejection buffer
-gpgpu_shmem_per_block                49152 # Size of shared memory per thread block or CTA (default 48kB)
-gpgpu_shmem_size                   49152 # Size of shared memory per shader core (default 16kB)
-gpgpu_adaptive_cache_config                    0 # adaptive_cache_config
-gpgpu_shmem_sizeDefault                49152 # Size of shared memory per shader core (default 16kB)
-gpgpu_shmem_size_PrefL1                16384 # Size of shared memory per shader core (default 16kB)
-gpgpu_shmem_size_PrefShared                16384 # Size of shared memory per shader core (default 16kB)
-gpgpu_shmem_num_banks                   32 # Number of banks in the shared memory in each shader core (default 16)
-gpgpu_shmem_limited_broadcast                    0 # Limit shared memory to do one broadcast per cycle (default on)
-gpgpu_shmem_warp_parts                    1 # Number of portions a warp is divided into for shared memory bank conflict check 
-gpgpu_mem_unit_ports                    1 # The number of memory transactions allowed per core cycle
-gpgpu_shmem_warp_parts                    1 # Number of portions a warp is divided into for shared memory bank conflict check 
-gpgpu_warpdistro_shader                   -1 # Specify which shader core to collect the warp size distribution from
-gpgpu_warp_issue_shader                    0 # Specify which shader core to collect the warp issue distribution from
-gpgpu_local_mem_map                    1 # Mapping from local memory space address to simulated GPU physical address space (default = enabled)
-gpgpu_num_reg_banks                   16 # Number of register banks (default = 8)
-gpgpu_reg_bank_use_warp_id                    0 # Use warp ID in mapping registers to banks (default = off)
-gpgpu_sub_core_model                    0 # Sub Core Volta/Pascal model (default = off)
-gpgpu_enable_specialized_operand_collector                    1 # enable_specialized_operand_collector
-gpgpu_operand_collector_num_units_sp                    6 # number of collector units (default = 4)
-gpgpu_operand_collector_num_units_dp                    0 # number of collector units (default = 0)
-gpgpu_operand_collector_num_units_sfu                    8 # number of collector units (default = 4)
-gpgpu_operand_collector_num_units_int                    0 # number of collector units (default = 0)
-gpgpu_operand_collector_num_units_tensor_core                    4 # number of collector units (default = 4)
-gpgpu_operand_collector_num_units_mem                    2 # number of collector units (default = 2)
-gpgpu_operand_collector_num_units_gen                    0 # number of collector units (default = 0)
-gpgpu_operand_collector_num_in_ports_sp                    2 # number of collector unit in ports (default = 1)
-gpgpu_operand_collector_num_in_ports_dp                    0 # number of collector unit in ports (default = 0)
-gpgpu_operand_collector_num_in_ports_sfu                    1 # number of collector unit in ports (default = 1)
-gpgpu_operand_collector_num_in_ports_int                    0 # number of collector unit in ports (default = 0)
-gpgpu_operand_collector_num_in_ports_tensor_core                    1 # number of collector unit in ports (default = 1)
-gpgpu_operand_collector_num_in_ports_mem                    1 # number of collector unit in ports (default = 1)
-gpgpu_operand_collector_num_in_ports_gen                    0 # number of collector unit in ports (default = 0)
-gpgpu_operand_collector_num_out_ports_sp                    2 # number of collector unit in ports (default = 1)
-gpgpu_operand_collector_num_out_ports_dp                    0 # number of collector unit in ports (default = 0)
-gpgpu_operand_collector_num_out_ports_sfu                    1 # number of collector unit in ports (default = 1)
-gpgpu_operand_collector_num_out_ports_int                    0 # number of collector unit in ports (default = 0)
-gpgpu_operand_collector_num_out_ports_tensor_core                    1 # number of collector unit in ports (default = 1)
-gpgpu_operand_collector_num_out_ports_mem                    1 # number of collector unit in ports (default = 1)
-gpgpu_operand_collector_num_out_ports_gen                    0 # number of collector unit in ports (default = 0)
-gpgpu_coalesce_arch                   20 # Coalescing arch (GT200 = 13, Fermi = 20)
-gpgpu_num_sched_per_core                    2 # Number of warp schedulers per core
-gpgpu_max_insn_issue_per_warp                    1 # Max number of instructions that can be issued per warp in one cycle by scheduler (either 1 or 2)
-gpgpu_dual_issue_diff_exec_units                    1 # should dual issue use two different execution unit resources (Default = 1)
-gpgpu_simt_core_sim_order                    1 # Select the simulation order of cores in a cluster (0=Fix, 1=Round-Robin)
-gpgpu_pipeline_widths 2,0,0,1,1,2,0,0,1,1,2 # Pipeline widths ID_OC_SP,ID_OC_DP,ID_OC_INT,ID_OC_SFU,ID_OC_MEM,OC_EX_SP,OC_EX_DP,OC_EX_INT,OC_EX_SFU,OC_EX_MEM,EX_WB,ID_OC_TENSOR_CORE,OC_EX_TENSOR_CORE
-gpgpu_tensor_core_avail                    0 # Tensor Core Available (default=0)
-gpgpu_num_sp_units                     2 # Number of SP units (default=1)
-gpgpu_num_dp_units                     0 # Number of DP units (default=0)
-gpgpu_num_int_units                    0 # Number of INT units (default=0)
-gpgpu_num_sfu_units                    1 # Number of SF units (default=1)
-gpgpu_num_tensor_core_units                    0 # Number of tensor_core units (default=1)
-gpgpu_num_mem_units                    1 # Number if ldst units (default=1) WARNING: not hooked up to anything
-gpgpu_scheduler                      gto # Scheduler configuration: < lrr | gto | two_level_active > If two_level_active:<num_active_warps>:<inner_prioritization>:<outer_prioritization>For complete list of prioritization values see shader.h enum scheduler_prioritization_typeDefault: gto
-gpgpu_concurrent_kernel_sm                    0 # Support concurrent kernels on a SM (default = disabled)
-gpgpu_perfect_inst_const_cache                    0 # perfect inst and const cache mode, so all inst and const hits in the cache(default = disabled)
-gpgpu_inst_fetch_throughput                    1 # the number of fetched intruction per warp each cycle
-gpgpu_reg_file_port_throughput                    1 # the number ports of the register file
-specialized_unit_1         0,4,4,4,4,BRA # specialized unit config {<enabled>,<num_units>:<latency>:<initiation>,<ID_OC_SPEC>:<OC_EX_SPEC>,<NAME>}
-specialized_unit_2         0,4,4,4,4,BRA # specialized unit config {<enabled>,<num_units>:<latency>:<initiation>,<ID_OC_SPEC>:<OC_EX_SPEC>,<NAME>}
-specialized_unit_3         0,4,4,4,4,BRA # specialized unit config {<enabled>,<num_units>:<latency>:<initiation>,<ID_OC_SPEC>:<OC_EX_SPEC>,<NAME>}
-specialized_unit_4         0,4,4,4,4,BRA # specialized unit config {<enabled>,<num_units>:<latency>:<initiation>,<ID_OC_SPEC>:<OC_EX_SPEC>,<NAME>}
-specialized_unit_5         0,4,4,4,4,BRA # specialized unit config {<enabled>,<num_units>:<latency>:<initiation>,<ID_OC_SPEC>:<OC_EX_SPEC>,<NAME>}
-specialized_unit_6         0,4,4,4,4,BRA # specialized unit config {<enabled>,<num_units>:<latency>:<initiation>,<ID_OC_SPEC>:<OC_EX_SPEC>,<NAME>}
-specialized_unit_7         0,4,4,4,4,BRA # specialized unit config {<enabled>,<num_units>:<latency>:<initiation>,<ID_OC_SPEC>:<OC_EX_SPEC>,<NAME>}
-specialized_unit_8         0,4,4,4,4,BRA # specialized unit config {<enabled>,<num_units>:<latency>:<initiation>,<ID_OC_SPEC>:<OC_EX_SPEC>,<NAME>}
-gpgpu_perf_sim_memcpy                    1 # Fill the L2 cache on memcpy
-gpgpu_simple_dram_model                    0 # simple_dram_model with fixed latency and BW
-gpgpu_dram_scheduler                    1 # 0 = fifo, 1 = FR-FCFS (defaul)
-gpgpu_dram_partition_queues          64:64:64:64 # i2$:$2d:d2$:$2i
-l2_ideal                               0 # Use a ideal L2 cache that always hit
-gpgpu_cache:dl2     S:64:128:8,L:B:m:L:L,A:256:4,4:0,32 # unified banked L2 data cache config  {<nsets>:<bsize>:<assoc>,<rep>:<wr>:<alloc>:<wr_alloc>,<mshr>:<N>:<merge>,<mq>}
-gpgpu_cache:dl2_texture_only                    0 # L2 cache used for texture only
-gpgpu_n_mem                            6 # number of memory modules (e.g. memory controllers) in gpu
-gpgpu_n_sub_partition_per_mchannel                    2 # number of memory subpartition in each memory module
-gpgpu_n_mem_per_ctrlr                    2 # number of memory chips per memory controller
-gpgpu_memlatency_stat                   14 # track and display latency statistics 0x2 enables MC, 0x4 enables queue logs
-gpgpu_frfcfs_dram_sched_queue_size                   64 # 0 = unlimited (default); # entries per chip
-gpgpu_dram_return_queue_size                  116 # 0 = unlimited (default); # entries per chip
-gpgpu_dram_buswidth                    4 # default = 4 bytes (8 bytes per cycle at DDR)
-gpgpu_dram_burst_length                    8 # Burst length of each DRAM request (default = 4 data bus cycle)
-dram_data_command_freq_ratio                    4 # Frequency ratio between DRAM data bus and command bus (default = 2 times, i.e. DDR)
-gpgpu_dram_timing_opt nbk=16:CCD=2:RRD=6:RCD=12:RAS=28:RP=12:RC=40: CL=12:WL=4:CDLR=5:WR=12:nbkgrp=4:CCDL=3:RTPL=2 # DRAM timing parameters = {nbk:tCCD:tRRD:tRCD:tRAS:tRP:tRC:CL:WL:tCDLR:tWR:nbkgrp:tCCDL:tRTPL}
-gpgpu_l2_rop_latency                  120 # ROP queue latency (default 85)
-dram_latency                         100 # DRAM latency (default 30)
-dram_dual_bus_interface                    0 # dual_bus_interface (default = 0) 
-dram_bnk_indexing_policy                    0 # dram_bnk_indexing_policy (0 = normal indexing, 1 = Xoring with the higher bits) (Default = 0)
-dram_bnkgrp_indexing_policy                    1 # dram_bnkgrp_indexing_policy (0 = take higher bits, 1 = take lower bits) (Default = 0)
-dram_seperate_write_queue_enable                    0 # Seperate_Write_Queue_Enable
-dram_write_queue_size             32:28:16 # Write_Queue_Size
-dram_elimnate_rw_turnaround                    0 # elimnate_rw_turnaround i.e set tWTR and tRTW = 0
-icnt_flit_size                        40 # icnt_flit_size
-gpgpu_mem_addr_mapping dramid@8;00000000.00000000.00000000.00000000.0000RRRR.RRRRRRRR.BBBCCCCB.CCSSSSSS # mapping memory address to dram model {dramid@<start bit>;<memory address map>}
-gpgpu_mem_addr_test                    0 # run sweep test to check address mapping for aliased address
-gpgpu_mem_address_mask                    1 # 0 = old addressing mask, 1 = new addressing mask, 2 = new add. mask + flipped bank sel and chip sel bits
-gpgpu_memory_partition_indexing                    0 # 0 = no indexing, 1 = bitwise xoring, 2 = IPoly, 3 = custom indexing
-gpuwattch_xml_file  gpuwattch_gtx480.xml # GPUWattch XML file
-power_simulation_enabled                    1 # Turn on power simulator (1=On, 0=Off)
-power_per_cycle_dump                    0 # Dump detailed power output each cycle
-power_trace_enabled                    0 # produce a file for the power trace (1=On, 0=Off)
-power_trace_zlevel                     6 # Compression level of the power trace output log (0=no comp, 9=highest)
-steady_power_levels_enabled                    0 # produce a file for the steady power levels (1=On, 0=Off)
-steady_state_definition                  8:4 # allowed deviation:number of samples
-gpgpu_max_cycle                        0 # terminates gpu simulation early (0 = no limit)
-gpgpu_max_insn                 100000000 # terminates gpu simulation early (0 = no limit)
-gpgpu_max_cta                          0 # terminates gpu simulation early (0 = no limit)
-gpgpu_max_completed_cta                    0 # terminates gpu simulation early (0 = no limit)
-gpgpu_runtime_stat                   500 # display runtime statistics such as dram utilization {<freq>:<flag>}
-liveness_message_freq                    1 # Minimum number of seconds between simulation liveness messages (0 = always print)
-gpgpu_compute_capability_major                    2 # Major compute capability version number
-gpgpu_compute_capability_minor                    0 # Minor compute capability version number
-gpgpu_flush_l1_cache                    1 # Flush L1 cache at the end of each kernel call
-gpgpu_flush_l2_cache                    0 # Flush L2 cache at the end of each kernel call
-gpgpu_deadlock_detect                    1 # Stop the simulation at deadlock (1=on (default), 0=off)
-gpgpu_ptx_instruction_classification                    0 # if enabled will classify ptx instruction types per kernel (Max 255 kernels now)
-gpgpu_ptx_sim_mode                     0 # Select between Performance (default) or Functional simulation (1)
-gpgpu_clock_domains 700.0:700.0:700.0:924.0 # Clock Domain Frequencies in MhZ {<Core Clock>:<ICNT Clock>:<L2 Clock>:<DRAM Clock>}
-gpgpu_max_concurrent_kernel                    8 # maximum kernels that can run concurrently on GPU
-gpgpu_cflog_interval                    0 # Interval between each snapshot in control flow logger
-visualizer_enabled                     0 # Turn on visualizer output (1=On, 0=Off)
-visualizer_outputfile                 NULL # Specifies the output log file for visualizer
-visualizer_zlevel                      6 # Compression level of the visualizer output log (0=no comp, 9=highest)
-gpgpu_stack_size_limit                 1024 # GPU thread stack size
-gpgpu_heap_size_limit              8388608 # GPU malloc heap size 
-gpgpu_runtime_sync_depth_limit                    2 # GPU device runtime synchronize depth
-gpgpu_runtime_pending_launch_count_limit                 2048 # GPU device runtime pending launch count
-trace_enabled                          0 # Turn on traces
-trace_components                    none # comma seperated list of traces to enable. Complete list found in trace_streams.tup. Default none
-trace_sampling_core                    0 # The core which is printed using CORE_DPRINTF. Default 0
-trace_sampling_memory_partition                   -1 # The memory partition which is printed using MEMPART_DPRINTF. Default -1 (i.e. all)
-enable_ptx_file_line_stats                    1 # Turn on PTX source line statistic profiling. (1 = On)
-ptx_line_stats_filename gpgpu_inst_stats.txt # Output file for PTX source line statistics.
-gpgpu_kernel_launch_latency                    0 # Kernel launch latency in cycles. Default: 0
-gpgpu_cdp_enabled                      0 # Turn on CDP
-gpgpu_TB_launch_latency                    0 # thread block launch latency in cycles. Default: 0
DRAM Timing Options:
nbk                                    16 # number of banks
CCD                                     2 # column to column delay
RRD                                     6 # minimal delay between activation of rows in different banks
RCD                                    12 # row to column delay
RAS                                    28 # time needed to activate row
RP                                     12 # time needed to precharge (deactivate) row
RC                                     40 # row cycle time
CDLR                                    5 # switching from write to read (changes tWTR)
WR                                     12 # last data-in to row precharge
CL                                     12 # CAS latency
WL                                      4 # Write latency
nbkgrp                                  4 # number of bank groups
CCDL                                    3 # column to column delay between accesses to different bank groups
RTPL                                    2 # read to precharge delay between accesses to different bank groups
Total number of memory sub partition = 12
addr_dec_mask[CHIP]  = 0000000000000000 	high:64 low:0
addr_dec_mask[BK]    = 000000000000e100 	high:16 low:8
addr_dec_mask[ROW]   = 000000000fff0000 	high:28 low:16
addr_dec_mask[COL]   = 0000000000001eff 	high:13 low:0
addr_dec_mask[BURST] = 000000000000003f 	high:6 low:0
sub_partition_id_mask = 0000000000000100
GPGPU-Sim uArch: clock freqs: 700000000.000000:700000000.000000:700000000.000000:924000000.000000
GPGPU-Sim uArch: clock periods: 0.00000000142857142857:0.00000000142857142857:0.00000000142857142857:0.00000000108225108225
*** Initializing Memory Statistics ***
GPGPU-Sim uArch: interconnect node map (shaderID+MemID to icntID)
GPGPU-Sim uArch: Memory nodes ID start from index: 15
GPGPU-Sim uArch:    0   1   2   3   4
GPGPU-Sim uArch:    5   6   7   8   9
GPGPU-Sim uArch:   10  11  12  13  14
GPGPU-Sim uArch:   15  16  17  18  19
GPGPU-Sim uArch:   20  21  22  23  24
GPGPU-Sim uArch:   25  26
GPGPU-Sim uArch: interconnect node reverse map (icntID to shaderID+MemID)
GPGPU-Sim uArch: Memory nodes start from ID: 15
GPGPU-Sim uArch:    0   1   2   3   4
GPGPU-Sim uArch:    5   6   7   8   9
GPGPU-Sim uArch:   10  11  12  13  14
GPGPU-Sim uArch:   15  16  17  18  19
GPGPU-Sim uArch:   20  21  22  23  24
GPGPU-Sim uArch:   25  26
e7a8026e2cad0e1eadf41911b2f660f8  /code/ISPASS/BFS/ispass-2009-BFS
Extracting PTX file and ptxas options    1: ispass-2009-BFS.1.sm_30.ptx -arch=sm_30
Extracting PTX file and ptxas options    2: ispass-2009-BFS.2.sm_35.ptx -arch=sm_35
Extracting PTX file and ptxas options    3: ispass-2009-BFS.3.sm_50.ptx -arch=sm_50
Extracting PTX file and ptxas options    4: ispass-2009-BFS.4.sm_60.ptx -arch=sm_60
Extracting PTX file and ptxas options    5: ispass-2009-BFS.5.sm_62.ptx -arch=sm_62
GPGPU-Sim uArch: performance model initialization complete.
self exe links to: /code/ISPASS/BFS/ispass-2009-BFS
self exe links to: /code/ISPASS/BFS/ispass-2009-BFS
10.1
GPGPU-Sim PTX: __cudaRegisterFatBinary, fat_cubin_handle = 1, filename=default
self exe links to: /code/ISPASS/BFS/ispass-2009-BFS
Running md5sum using "md5sum /code/ISPASS/BFS/ispass-2009-BFS "
self exe links to: /code/ISPASS/BFS/ispass-2009-BFS
Extracting specific PTX file named ispass-2009-BFS.1.sm_30.ptx 
Extracting specific PTX file named ispass-2009-BFS.2.sm_35.ptx 
Extracting specific PTX file named ispass-2009-BFS.3.sm_50.ptx 
Extracting specific PTX file named ispass-2009-BFS.4.sm_60.ptx 
Extracting specific PTX file named ispass-2009-BFS.5.sm_62.ptx 
GPGPU-Sim PTX: __cudaRegisterFunction _Z6KernelP4NodePiPbS2_S1_S2_i : hostFun 0x0x403910, fat_cubin_handle = 1
GPGPU-Sim PTX: Parsing ispass-2009-BFS.1.sm_30.ptx
GPGPU-Sim PTX: instruction assembly for function '_Z6KernelP4NodePiPbS2_S1_S2_i'...   done.
GPGPU-Sim PTX: finished parsing EMBEDDED .ptx file ispass-2009-BFS.1.sm_30.ptx
GPGPU-Sim PTX: Parsing ispass-2009-BFS.2.sm_35.ptx
GPGPU-Sim PTX: Warning %p0 was declared previous at ispass-2009-BFS.1.sm_30.ptx:25 skipping new declaration
GPGPU-Sim PTX: Warning %p1 was declared previous at ispass-2009-BFS.1.sm_30.ptx:25 skipping new declaration
GPGPU-Sim PTX: Warning %p2 was declared previous at ispass-2009-BFS.1.sm_30.ptx:25 skipping new declaration
GPGPU-Sim PTX: Warning %p3 was declared previous at ispass-2009-BFS.1.sm_30.ptx:25 skipping new declaration
GPGPU-Sim PTX: Warning %p4 was declared previous at ispass-2009-BFS.1.sm_30.ptx:25 skipping new declaration
GPGPU-Sim PTX: Warning %p5 was declared previous at ispass-2009-BFS.1.sm_30.ptx:25 skipping new declaration
GPGPU-Sim PTX: Warning %rs0 was declared previous at ispass-2009-BFS.1.sm_30.ptx:26 skipping new declaration
GPGPU-Sim PTX: Warning %rs1 was declared previous at ispass-2009-BFS.1.sm_30.ptx:26 skipping new declaration
GPGPU-Sim PTX: Warning %rs2 was declared previous at ispass-2009-BFS.1.sm_30.ptx:26 skipping new declaration
GPGPU-Sim PTX: Warning %rs3 was declared previous at ispass-2009-BFS.1.sm_30.ptx:26 skipping new declaration
GPGPU-Sim PTX: Warning %rs4 was declared previous at ispass-2009-BFS.1.sm_30.ptx:26 skipping new declaration
GPGPU-Sim PTX: Warning %rs5 was declared previous at ispass-2009-BFS.1.sm_30.ptx:26 skipping new declaration
GPGPU-Sim PTX: Warning %r0 was declared previous at ispass-2009-BFS.1.sm_30.ptx:27 skipping new declaration
GPGPU-Sim PTX: Warning %r1 was declared previous at ispass-2009-BFS.1.sm_30.ptx:27 skipping new declaration
GPGPU-Sim PTX: Warning %r2 was declared previous at ispass-2009-BFS.1.sm_30.ptx:27 skipping new declaration
GPGPU-Sim PTX: Warning %r3 was declared previous at ispass-2009-BFS.1.sm_30.ptx:27 skipping new declaration
GPGPU-Sim PTX: Warning %r4 was declared previous at ispass-2009-BFS.1.sm_30.ptx:27 skipping new declaration
GPGPU-Sim PTX: Warning %r5 was declared previous at ispass-2009-BFS.1.sm_30.ptx:27 skipping new declaration
GPGPU-Sim PTX: Warning %r6 was declared previous at ispass-2009-BFS.1.sm_30.ptx:27 skipping new declaration
GPGPU-Sim PTX: Warning %r7 was declared previous at ispass-2009-BFS.1.sm_30.ptx:27 skipping new declaration
GPGPU-Sim PTX: Warning %r8 was declared previous at ispass-2009-BFS.1.sm_30.ptx:27 skipping new declaration
GPGPU-Sim PTX: Warning %r9 was declared previous at ispass-2009-BFS.1.sm_30.ptx:27 skipping new declaration
GPGPU-Sim PTX: Warning %r10 was declared previous at ispass-2009-BFS.1.sm_30.ptx:27 skipping new declaration
GPGPU-Sim PTX: Warning %r11 was declared previous at ispass-2009-BFS.1.sm_30.ptx:27 skipping new declaration
GPGPU-Sim PTX: Warning %r12 was declared previous at ispass-2009-BFS.1.sm_30.ptx:27 skipping new declaration
GPGPU-Sim PTX: Warning %r13 was declared previous at ispass-2009-BFS.1.sm_30.ptx:27 skipping new declaration
GPGPU-Sim PTX: Warning %r14 was declared previous at ispass-2009-BFS.1.sm_30.ptx:27 skipping new declaration
GPGPU-Sim PTX: Warning %r15 was declared previous at ispass-2009-BFS.1.sm_30.ptx:27 skipping new declaration
GPGPU-Sim PTX: Warning %r16 was declared previous at ispass-2009-BFS.1.sm_30.ptx:27 skipping new declaration
GPGPU-Sim PTX: Warning %r17 was declared previous at ispass-2009-BFS.1.sm_30.ptx:27 skipping new declaration
GPGPU-Sim PTX: Warning %r18 was declared previous at ispass-2009-BFS.1.sm_30.ptx:27 skipping new declaration
GPGPU-Sim PTX: Warning %r19 was declared previous at ispass-2009-BFS.1.sm_30.ptx:27 skipping new declaration
GPGPU-Sim PTX: Warning %r20 was declared previous at ispass-2009-BFS.1.sm_30.ptx:27 skipping new declaration
GPGPU-Sim PTX: Warning %r21 was declared previous at ispass-2009-BFS.1.sm_30.ptx:27 skipping new declaration
GPGPU-Sim PTX: Warning %r22 was declared previous at ispass-2009-BFS.1.sm_30.ptx:27 skipping new declaration
GPGPU-Sim PTX: Warning %r23 was declared previous at ispass-2009-BFS.1.sm_30.ptx:27 skipping new declaration
GPGPU-Sim PTX: Warning %r24 was declared previous at ispass-2009-BFS.1.sm_30.ptx:27 skipping new declaration
GPGPU-Sim PTX: Warning %rd0 was declared previous at ispass-2009-BFS.1.sm_30.ptx:28 skipping new declaration
GPGPU-Sim PTX: Warning %rd1 was declared previous at ispass-2009-BFS.1.sm_30.ptx:28 skipping new declaration
GPGPU-Sim PTX: Warning %rd2 was declared previous at ispass-2009-BFS.1.sm_30.ptx:28 skipping new declaration
GPGPU-Sim PTX: Warning %rd3 was declared previous at ispass-2009-BFS.1.sm_30.ptx:28 skipping new declaration
GPGPU-Sim PTX: Warning %rd4 was declared previous at ispass-2009-BFS.1.sm_30.ptx:28 skipping new declaration
GPGPU-Sim PTX: Warning %rd5 was declared previous at ispass-2009-BFS.1.sm_30.ptx:28 skipping new declaration
GPGPU-Sim PTX: Warning %rd6 was declared previous at ispass-2009-BFS.1.sm_30.ptx:28 skipping new declaration
GPGPU-Sim PTX: Warning %rd7 was declared previous at ispass-2009-BFS.1.sm_30.ptx:28 skipping new declaration
GPGPU-Sim PTX: Warning %rd8 was declared previous at ispass-2009-BFS.1.sm_30.ptx:28 skipping new declaration
GPGPU-Sim PTX: Warning %rd9 was declared previous at ispass-2009-BFS.1.sm_30.ptx:28 skipping new declaration
GPGPU-Sim PTX: Warning %rd10 was declared previous at ispass-2009-BFS.1.sm_30.ptx:28 skipping new declaration
GPGPU-Sim PTX: Warning %rd11 was declared previous at ispass-2009-BFS.1.sm_30.ptx:28 skipping new declaration
GPGPU-Sim PTX: Warning %rd12 was declared previous at ispass-2009-BFS.1.sm_30.ptx:28 skipping new declaration
GPGPU-Sim PTX: Warning %rd13 was declared previous at ispass-2009-BFS.1.sm_30.ptx:28 skipping new declaration
GPGPU-Sim PTX: Warning %rd14 was declared previous at ispass-2009-BFS.1.sm_30.ptx:28 skipping new declaration
GPGPU-Sim PTX: Warning %rd15 was declared previous at ispass-2009-BFS.1.sm_30.ptx:28 skipping new declaration
GPGPU-Sim PTX: Warning %rd16 was declared previous at ispass-2009-BFS.1.sm_30.ptx:28 skipping new declaration
GPGPU-Sim PTX: Warning %rd17 was declared previous at ispass-2009-BFS.1.sm_30.ptx:28 skipping new declaration
GPGPU-Sim PTX: Warning %rd18 was declared previous at ispass-2009-BFS.1.sm_30.ptx:28 skipping new declaration
GPGPU-Sim PTX: Warning %rd19 was declared previous at ispass-2009-BFS.1.sm_30.ptx:28 skipping new declaration
GPGPU-Sim PTX: Warning %rd20 was declared previous at ispass-2009-BFS.1.sm_30.ptx:28 skipping new declaration
GPGPU-Sim PTX: Warning %rd21 was declared previous at ispass-2009-BFS.1.sm_30.ptx:28 skipping new declaration
GPGPU-Sim PTX: Warning %rd22 was declared previous at ispass-2009-BFS.1.sm_30.ptx:28 skipping new declaration
GPGPU-Sim PTX: Warning %rd23 was declared previous at ispass-2009-BFS.1.sm_30.ptx:28 skipping new declaration
GPGPU-Sim PTX: Warning %rd24 was declared previous at ispass-2009-BFS.1.sm_30.ptx:28 skipping new declaration
GPGPU-Sim PTX: Warning %rd25 was declared previous at ispass-2009-BFS.1.sm_30.ptx:28 skipping new declaration
GPGPU-Sim PTX: Warning %rd26 was declared previous at ispass-2009-BFS.1.sm_30.ptx:28 skipping new declaration
GPGPU-Sim PTX: Warning %rd27 was declared previous at ispass-2009-BFS.1.sm_30.ptx:28 skipping new declaration
GPGPU-Sim PTX: Warning %rd28 was declared previous at ispass-2009-BFS.1.sm_30.ptx:28 skipping new declaration
GPGPU-Sim PTX: Warning %rd29 was declared previous at ispass-2009-BFS.1.sm_30.ptx:28 skipping new declaration
GPGPU-Sim PTX: Warning %rd30 was declared previous at ispass-2009-BFS.1.sm_30.ptx:28 skipping new declaration
GPGPU-Sim PTX: Warning %rd31 was declared previous at ispass-2009-BFS.1.sm_30.ptx:28 skipping new declaration
GPGPU-Sim PTX: Warning %rd32 was declared previous at ispass-2009-BFS.1.sm_30.ptx:28 skipping new declaration
GPGPU-Sim PTX: Warning %rd33 was declared previous at ispass-2009-BFS.1.sm_30.ptx:28 skipping new declaration
GPGPU-Sim PTX: Warning %rd34 was declared previous at ispass-2009-BFS.1.sm_30.ptx:28 skipping new declaration
GPGPU-Sim PTX: instruction assembly for function '_Z6KernelP4NodePiPbS2_S1_S2_i'...   done.
GPGPU-Sim PTX: finished parsing EMBEDDED .ptx file ispass-2009-BFS.2.sm_35.ptx
GPGPU-Sim PTX: Parsing ispass-2009-BFS.3.sm_50.ptx
GPGPU-Sim PTX: Warning %p0 was declared previous at ispass-2009-BFS.1.sm_30.ptx:25 skipping new declaration
GPGPU-Sim PTX: Warning %p1 was declared previous at ispass-2009-BFS.1.sm_30.ptx:25 skipping new declaration
GPGPU-Sim PTX: Warning %p2 was declared previous at ispass-2009-BFS.1.sm_30.ptx:25 skipping new declaration
GPGPU-Sim PTX: Warning %p3 was declared previous at ispass-2009-BFS.1.sm_30.ptx:25 skipping new declaration
GPGPU-Sim PTX: Warning %p4 was declared previous at ispass-2009-BFS.1.sm_30.ptx:25 skipping new declaration
GPGPU-Sim PTX: Warning %p5 was declared previous at ispass-2009-BFS.1.sm_30.ptx:25 skipping new declaration
GPGPU-Sim PTX: Warning %rs0 was declared previous at ispass-2009-BFS.1.sm_30.ptx:26 skipping new declaration
GPGPU-Sim PTX: Warning %rs1 was declared previous at ispass-2009-BFS.1.sm_30.ptx:26 skipping new declaration
GPGPU-Sim PTX: Warning %rs2 was declared previous at ispass-2009-BFS.1.sm_30.ptx:26 skipping new declaration
GPGPU-Sim PTX: Warning %rs3 was declared previous at ispass-2009-BFS.1.sm_30.ptx:26 skipping new declaration
GPGPU-Sim PTX: Warning %rs4 was declared previous at ispass-2009-BFS.1.sm_30.ptx:26 skipping new declaration
GPGPU-Sim PTX: Warning %rs5 was declared previous at ispass-2009-BFS.1.sm_30.ptx:26 skipping new declaration
GPGPU-Sim PTX: Warning %r0 was declared previous at ispass-2009-BFS.1.sm_30.ptx:27 skipping new declaration
GPGPU-Sim PTX: Warning %r1 was declared previous at ispass-2009-BFS.1.sm_30.ptx:27 skipping new declaration
GPGPU-Sim PTX: Warning %r2 was declared previous at ispass-2009-BFS.1.sm_30.ptx:27 skipping new declaration
GPGPU-Sim PTX: Warning %r3 was declared previous at ispass-2009-BFS.1.sm_30.ptx:27 skipping new declaration
GPGPU-Sim PTX: Warning %r4 was declared previous at ispass-2009-BFS.1.sm_30.ptx:27 skipping new declaration
GPGPU-Sim PTX: Warning %r5 was declared previous at ispass-2009-BFS.1.sm_30.ptx:27 skipping new declaration
GPGPU-Sim PTX: Warning %r6 was declared previous at ispass-2009-BFS.1.sm_30.ptx:27 skipping new declaration
GPGPU-Sim PTX: Warning %r7 was declared previous at ispass-2009-BFS.1.sm_30.ptx:27 skipping new declaration
GPGPU-Sim PTX: Warning %r8 was declared previous at ispass-2009-BFS.1.sm_30.ptx:27 skipping new declaration
GPGPU-Sim PTX: Warning %r9 was declared previous at ispass-2009-BFS.1.sm_30.ptx:27 skipping new declaration
GPGPU-Sim PTX: Warning %r10 was declared previous at ispass-2009-BFS.1.sm_30.ptx:27 skipping new declaration
GPGPU-Sim PTX: Warning %r11 was declared previous at ispass-2009-BFS.1.sm_30.ptx:27 skipping new declaration
GPGPU-Sim PTX: Warning %r12 was declared previous at ispass-2009-BFS.1.sm_30.ptx:27 skipping new declaration
GPGPU-Sim PTX: Warning %r13 was declared previous at ispass-2009-BFS.1.sm_30.ptx:27 skipping new declaration
GPGPU-Sim PTX: Warning %r14 was declared previous at ispass-2009-BFS.1.sm_30.ptx:27 skipping new declaration
GPGPU-Sim PTX: Warning %r15 was declared previous at ispass-2009-BFS.1.sm_30.ptx:27 skipping new declaration
GPGPU-Sim PTX: Warning %r16 was declared previous at ispass-2009-BFS.1.sm_30.ptx:27 skipping new declaration
GPGPU-Sim PTX: Warning %r17 was declared previous at ispass-2009-BFS.1.sm_30.ptx:27 skipping new declaration
GPGPU-Sim PTX: Warning %r18 was declared previous at ispass-2009-BFS.1.sm_30.ptx:27 skipping new declaration
GPGPU-Sim PTX: Warning %r19 was declared previous at ispass-2009-BFS.1.sm_30.ptx:27 skipping new declaration
GPGPU-Sim PTX: Warning %r20 was declared previous at ispass-2009-BFS.1.sm_30.ptx:27 skipping new declaration
GPGPU-Sim PTX: Warning %r21 was declared previous at ispass-2009-BFS.1.sm_30.ptx:27 skipping new declaration
GPGPU-Sim PTX: Warning %r22 was declared previous at ispass-2009-BFS.1.sm_30.ptx:27 skipping new declaration
GPGPU-Sim PTX: Warning %r23 was declared previous at ispass-2009-BFS.1.sm_30.ptx:27 skipping new declaration
GPGPU-Sim PTX: Warning %r24 was declared previous at ispass-2009-BFS.1.sm_30.ptx:27 skipping new declaration
GPGPU-Sim PTX: Warning %rd0 was declared previous at ispass-2009-BFS.1.sm_30.ptx:28 skipping new declaration
GPGPU-Sim PTX: Warning %rd1 was declared previous at ispass-2009-BFS.1.sm_30.ptx:28 skipping new declaration
GPGPU-Sim PTX: Warning %rd2 was declared previous at ispass-2009-BFS.1.sm_30.ptx:28 skipping new declaration
GPGPU-Sim PTX: Warning %rd3 was declared previous at ispass-2009-BFS.1.sm_30.ptx:28 skipping new declaration
GPGPU-Sim PTX: Warning %rd4 was declared previous at ispass-2009-BFS.1.sm_30.ptx:28 skipping new declaration
GPGPU-Sim PTX: Warning %rd5 was declared previous at ispass-2009-BFS.1.sm_30.ptx:28 skipping new declaration
GPGPU-Sim PTX: Warning %rd6 was declared previous at ispass-2009-BFS.1.sm_30.ptx:28 skipping new declaration
GPGPU-Sim PTX: Warning %rd7 was declared previous at ispass-2009-BFS.1.sm_30.ptx:28 skipping new declaration
GPGPU-Sim PTX: Warning %rd8 was declared previous at ispass-2009-BFS.1.sm_30.ptx:28 skipping new declaration
GPGPU-Sim PTX: Warning %rd9 was declared previous at ispass-2009-BFS.1.sm_30.ptx:28 skipping new declaration
GPGPU-Sim PTX: Warning %rd10 was declared previous at ispass-2009-BFS.1.sm_30.ptx:28 skipping new declaration
GPGPU-Sim PTX: Warning %rd11 was declared previous at ispass-2009-BFS.1.sm_30.ptx:28 skipping new declaration
GPGPU-Sim PTX: Warning %rd12 was declared previous at ispass-2009-BFS.1.sm_30.ptx:28 skipping new declaration
GPGPU-Sim PTX: Warning %rd13 was declared previous at ispass-2009-BFS.1.sm_30.ptx:28 skipping new declaration
GPGPU-Sim PTX: Warning %rd14 was declared previous at ispass-2009-BFS.1.sm_30.ptx:28 skipping new declaration
GPGPU-Sim PTX: Warning %rd15 was declared previous at ispass-2009-BFS.1.sm_30.ptx:28 skipping new declaration
GPGPU-Sim PTX: Warning %rd16 was declared previous at ispass-2009-BFS.1.sm_30.ptx:28 skipping new declaration
GPGPU-Sim PTX: Warning %rd17 was declared previous at ispass-2009-BFS.1.sm_30.ptx:28 skipping new declaration
GPGPU-Sim PTX: Warning %rd18 was declared previous at ispass-2009-BFS.1.sm_30.ptx:28 skipping new declaration
GPGPU-Sim PTX: Warning %rd19 was declared previous at ispass-2009-BFS.1.sm_30.ptx:28 skipping new declaration
GPGPU-Sim PTX: Warning %rd20 was declared previous at ispass-2009-BFS.1.sm_30.ptx:28 skipping new declaration
GPGPU-Sim PTX: Warning %rd21 was declared previous at ispass-2009-BFS.1.sm_30.ptx:28 skipping new declaration
GPGPU-Sim PTX: Warning %rd22 was declared previous at ispass-2009-BFS.1.sm_30.ptx:28 skipping new declaration
GPGPU-Sim PTX: Warning %rd23 was declared previous at ispass-2009-BFS.1.sm_30.ptx:28 skipping new declaration
GPGPU-Sim PTX: Warning %rd24 was declared previous at ispass-2009-BFS.1.sm_30.ptx:28 skipping new declaration
GPGPU-Sim PTX: Warning %rd25 was declared previous at ispass-2009-BFS.1.sm_30.ptx:28 skipping new declaration
GPGPU-Sim PTX: Warning %rd26 was declared previous at ispass-2009-BFS.1.sm_30.ptx:28 skipping new declaration
GPGPU-Sim PTX: Warning %rd27 was declared previous at ispass-2009-BFS.1.sm_30.ptx:28 skipping new declaration
GPGPU-Sim PTX: Warning %rd28 was declared previous at ispass-2009-BFS.1.sm_30.ptx:28 skipping new declaration
GPGPU-Sim PTX: Warning %rd29 was declared previous at ispass-2009-BFS.1.sm_30.ptx:28 skipping new declaration
GPGPU-Sim PTX: Warning %rd30 was declared previous at ispass-2009-BFS.1.sm_30.ptx:28 skipping new declaration
GPGPU-Sim PTX: Warning %rd31 was declared previous at ispass-2009-BFS.1.sm_30.ptx:28 skipping new declaration
GPGPU-Sim PTX: Warning %rd32 was declared previous at ispass-2009-BFS.1.sm_30.ptx:28 skipping new declaration
GPGPU-Sim PTX: Warning %rd33 was declared previous at ispass-2009-BFS.1.sm_30.ptx:28 skipping new declaration
GPGPU-Sim PTX: Warning %rd34 was declared previous at ispass-2009-BFS.1.sm_30.ptx:28 skipping new declaration
GPGPU-Sim PTX: Warning %rd35 was declared previous at ispass-2009-BFS.2.sm_35.ptx:28 skipping new declaration
GPGPU-Sim PTX: instruction assembly for function '_Z6KernelP4NodePiPbS2_S1_S2_i'...   done.
GPGPU-Sim PTX: finished parsing EMBEDDED .ptx file ispass-2009-BFS.3.sm_50.ptx
GPGPU-Sim PTX: Parsing ispass-2009-BFS.4.sm_60.ptx
GPGPU-Sim PTX: Warning %p0 was declared previous at ispass-2009-BFS.1.sm_30.ptx:25 skipping new declaration
GPGPU-Sim PTX: Warning %p1 was declared previous at ispass-2009-BFS.1.sm_30.ptx:25 skipping new declaration
GPGPU-Sim PTX: Warning %p2 was declared previous at ispass-2009-BFS.1.sm_30.ptx:25 skipping new declaration
GPGPU-Sim PTX: Warning %p3 was declared previous at ispass-2009-BFS.1.sm_30.ptx:25 skipping new declaration
GPGPU-Sim PTX: Warning %p4 was declared previous at ispass-2009-BFS.1.sm_30.ptx:25 skipping new declaration
GPGPU-Sim PTX: Warning %p5 was declared previous at ispass-2009-BFS.1.sm_30.ptx:25 skipping new declaration
GPGPU-Sim PTX: Warning %rs0 was declared previous at ispass-2009-BFS.1.sm_30.ptx:26 skipping new declaration
GPGPU-Sim PTX: Warning %rs1 was declared previous at ispass-2009-BFS.1.sm_30.ptx:26 skipping new declaration
GPGPU-Sim PTX: Warning %rs2 was declared previous at ispass-2009-BFS.1.sm_30.ptx:26 skipping new declaration
GPGPU-Sim PTX: Warning %rs3 was declared previous at ispass-2009-BFS.1.sm_30.ptx:26 skipping new declaration
GPGPU-Sim PTX: Warning %rs4 was declared previous at ispass-2009-BFS.1.sm_30.ptx:26 skipping new declaration
GPGPU-Sim PTX: Warning %rs5 was declared previous at ispass-2009-BFS.1.sm_30.ptx:26 skipping new declaration
GPGPU-Sim PTX: Warning %r0 was declared previous at ispass-2009-BFS.1.sm_30.ptx:27 skipping new declaration
GPGPU-Sim PTX: Warning %r1 was declared previous at ispass-2009-BFS.1.sm_30.ptx:27 skipping new declaration
GPGPU-Sim PTX: Warning %r2 was declared previous at ispass-2009-BFS.1.sm_30.ptx:27 skipping new declaration
GPGPU-Sim PTX: Warning %r3 was declared previous at ispass-2009-BFS.1.sm_30.ptx:27 skipping new declaration
GPGPU-Sim PTX: Warning %r4 was declared previous at ispass-2009-BFS.1.sm_30.ptx:27 skipping new declaration
GPGPU-Sim PTX: Warning %r5 was declared previous at ispass-2009-BFS.1.sm_30.ptx:27 skipping new declaration
GPGPU-Sim PTX: Warning %r6 was declared previous at ispass-2009-BFS.1.sm_30.ptx:27 skipping new declaration
GPGPU-Sim PTX: Warning %r7 was declared previous at ispass-2009-BFS.1.sm_30.ptx:27 skipping new declaration
GPGPU-Sim PTX: Warning %r8 was declared previous at ispass-2009-BFS.1.sm_30.ptx:27 skipping new declaration
GPGPU-Sim PTX: Warning %r9 was declared previous at ispass-2009-BFS.1.sm_30.ptx:27 skipping new declaration
GPGPU-Sim PTX: Warning %r10 was declared previous at ispass-2009-BFS.1.sm_30.ptx:27 skipping new declaration
GPGPU-Sim PTX: Warning %r11 was declared previous at ispass-2009-BFS.1.sm_30.ptx:27 skipping new declaration
GPGPU-Sim PTX: Warning %r12 was declared previous at ispass-2009-BFS.1.sm_30.ptx:27 skipping new declaration
GPGPU-Sim PTX: Warning %r13 was declared previous at ispass-2009-BFS.1.sm_30.ptx:27 skipping new declaration
GPGPU-Sim PTX: Warning %r14 was declared previous at ispass-2009-BFS.1.sm_30.ptx:27 skipping new declaration
GPGPU-Sim PTX: Warning %r15 was declared previous at ispass-2009-BFS.1.sm_30.ptx:27 skipping new declaration
GPGPU-Sim PTX: Warning %r16 was declared previous at ispass-2009-BFS.1.sm_30.ptx:27 skipping new declaration
GPGPU-Sim PTX: Warning %r17 was declared previous at ispass-2009-BFS.1.sm_30.ptx:27 skipping new declaration
GPGPU-Sim PTX: Warning %r18 was declared previous at ispass-2009-BFS.1.sm_30.ptx:27 skipping new declaration
GPGPU-Sim PTX: Warning %r19 was declared previous at ispass-2009-BFS.1.sm_30.ptx:27 skipping new declaration
GPGPU-Sim PTX: Warning %r20 was declared previous at ispass-2009-BFS.1.sm_30.ptx:27 skipping new declaration
GPGPU-Sim PTX: Warning %r21 was declared previous at ispass-2009-BFS.1.sm_30.ptx:27 skipping new declaration
GPGPU-Sim PTX: Warning %r22 was declared previous at ispass-2009-BFS.1.sm_30.ptx:27 skipping new declaration
GPGPU-Sim PTX: Warning %r23 was declared previous at ispass-2009-BFS.1.sm_30.ptx:27 skipping new declaration
GPGPU-Sim PTX: Warning %r24 was declared previous at ispass-2009-BFS.1.sm_30.ptx:27 skipping new declaration
GPGPU-Sim PTX: Warning %rd0 was declared previous at ispass-2009-BFS.1.sm_30.ptx:28 skipping new declaration
GPGPU-Sim PTX: Warning %rd1 was declared previous at ispass-2009-BFS.1.sm_30.ptx:28 skipping new declaration
GPGPU-Sim PTX: Warning %rd2 was declared previous at ispass-2009-BFS.1.sm_30.ptx:28 skipping new declaration
GPGPU-Sim PTX: Warning %rd3 was declared previous at ispass-2009-BFS.1.sm_30.ptx:28 skipping new declaration
GPGPU-Sim PTX: Warning %rd4 was declared previous at ispass-2009-BFS.1.sm_30.ptx:28 skipping new declaration
GPGPU-Sim PTX: Warning %rd5 was declared previous at ispass-2009-BFS.1.sm_30.ptx:28 skipping new declaration
GPGPU-Sim PTX: Warning %rd6 was declared previous at ispass-2009-BFS.1.sm_30.ptx:28 skipping new declaration
GPGPU-Sim PTX: Warning %rd7 was declared previous at ispass-2009-BFS.1.sm_30.ptx:28 skipping new declaration
GPGPU-Sim PTX: Warning %rd8 was declared previous at ispass-2009-BFS.1.sm_30.ptx:28 skipping new declaration
GPGPU-Sim PTX: Warning %rd9 was declared previous at ispass-2009-BFS.1.sm_30.ptx:28 skipping new declaration
GPGPU-Sim PTX: Warning %rd10 was declared previous at ispass-2009-BFS.1.sm_30.ptx:28 skipping new declaration
GPGPU-Sim PTX: Warning %rd11 was declared previous at ispass-2009-BFS.1.sm_30.ptx:28 skipping new declaration
GPGPU-Sim PTX: Warning %rd12 was declared previous at ispass-2009-BFS.1.sm_30.ptx:28 skipping new declaration
GPGPU-Sim PTX: Warning %rd13 was declared previous at ispass-2009-BFS.1.sm_30.ptx:28 skipping new declaration
GPGPU-Sim PTX: Warning %rd14 was declared previous at ispass-2009-BFS.1.sm_30.ptx:28 skipping new declaration
GPGPU-Sim PTX: Warning %rd15 was declared previous at ispass-2009-BFS.1.sm_30.ptx:28 skipping new declaration
GPGPU-Sim PTX: Warning %rd16 was declared previous at ispass-2009-BFS.1.sm_30.ptx:28 skipping new declaration
GPGPU-Sim PTX: Warning %rd17 was declared previous at ispass-2009-BFS.1.sm_30.ptx:28 skipping new declaration
GPGPU-Sim PTX: Warning %rd18 was declared previous at ispass-2009-BFS.1.sm_30.ptx:28 skipping new declaration
GPGPU-Sim PTX: Warning %rd19 was declared previous at ispass-2009-BFS.1.sm_30.ptx:28 skipping new declaration
GPGPU-Sim PTX: Warning %rd20 was declared previous at ispass-2009-BFS.1.sm_30.ptx:28 skipping new declaration
GPGPU-Sim PTX: Warning %rd21 was declared previous at ispass-2009-BFS.1.sm_30.ptx:28 skipping new declaration
GPGPU-Sim PTX: Warning %rd22 was declared previous at ispass-2009-BFS.1.sm_30.ptx:28 skipping new declaration
GPGPU-Sim PTX: Warning %rd23 was declared previous at ispass-2009-BFS.1.sm_30.ptx:28 skipping new declaration
GPGPU-Sim PTX: Warning %rd24 was declared previous at ispass-2009-BFS.1.sm_30.ptx:28 skipping new declaration
GPGPU-Sim PTX: Warning %rd25 was declared previous at ispass-2009-BFS.1.sm_30.ptx:28 skipping new declaration
GPGPU-Sim PTX: Warning %rd26 was declared previous at ispass-2009-BFS.1.sm_30.ptx:28 skipping new declaration
GPGPU-Sim PTX: Warning %rd27 was declared previous at ispass-2009-BFS.1.sm_30.ptx:28 skipping new declaration
GPGPU-Sim PTX: Warning %rd28 was declared previous at ispass-2009-BFS.1.sm_30.ptx:28 skipping new declaration
GPGPU-Sim PTX: Warning %rd29 was declared previous at ispass-2009-BFS.1.sm_30.ptx:28 skipping new declaration
GPGPU-Sim PTX: Warning %rd30 was declared previous at ispass-2009-BFS.1.sm_30.ptx:28 skipping new declaration
GPGPU-Sim PTX: Warning %rd31 was declared previous at ispass-2009-BFS.1.sm_30.ptx:28 skipping new declaration
GPGPU-Sim PTX: Warning %rd32 was declared previous at ispass-2009-BFS.1.sm_30.ptx:28 skipping new declaration
GPGPU-Sim PTX: Warning %rd33 was declared previous at ispass-2009-BFS.1.sm_30.ptx:28 skipping new declaration
GPGPU-Sim PTX: Warning %rd34 was declared previous at ispass-2009-BFS.1.sm_30.ptx:28 skipping new declaration
GPGPU-Sim PTX: Warning %rd35 was declared previous at ispass-2009-BFS.2.sm_35.ptx:28 skipping new declaration
GPGPU-Sim PTX: instruction assembly for function '_Z6KernelP4NodePiPbS2_S1_S2_i'...   done.
GPGPU-Sim PTX: finished parsing EMBEDDED .ptx file ispass-2009-BFS.4.sm_60.ptx
GPGPU-Sim PTX: Parsing ispass-2009-BFS.5.sm_62.ptx
GPGPU-Sim PTX: Warning %p0 was declared previous at ispass-2009-BFS.1.sm_30.ptx:25 skipping new declaration
GPGPU-Sim PTX: Warning %p1 was declared previous at ispass-2009-BFS.1.sm_30.ptx:25 skipping new declaration
GPGPU-Sim PTX: Warning %p2 was declared previous at ispass-2009-BFS.1.sm_30.ptx:25 skipping new declaration
GPGPU-Sim PTX: Warning %p3 was declared previous at ispass-2009-BFS.1.sm_30.ptx:25 skipping new declaration
GPGPU-Sim PTX: Warning %p4 was declared previous at ispass-2009-BFS.1.sm_30.ptx:25 skipping new declaration
GPGPU-Sim PTX: Warning %p5 was declared previous at ispass-2009-BFS.1.sm_30.ptx:25 skipping new declaration
GPGPU-Sim PTX: Warning %rs0 was declared previous at ispass-2009-BFS.1.sm_30.ptx:26 skipping new declaration
GPGPU-Sim PTX: Warning %rs1 was declared previous at ispass-2009-BFS.1.sm_30.ptx:26 skipping new declaration
GPGPU-Sim PTX: Warning %rs2 was declared previous at ispass-2009-BFS.1.sm_30.ptx:26 skipping new declaration
GPGPU-Sim PTX: Warning %rs3 was declared previous at ispass-2009-BFS.1.sm_30.ptx:26 skipping new declaration
GPGPU-Sim PTX: Warning %rs4 was declared previous at ispass-2009-BFS.1.sm_30.ptx:26 skipping new declaration
GPGPU-Sim PTX: Warning %rs5 was declared previous at ispass-2009-BFS.1.sm_30.ptx:26 skipping new declaration
GPGPU-Sim PTX: Warning %r0 was declared previous at ispass-2009-BFS.1.sm_30.ptx:27 skipping new declaration
GPGPU-Sim PTX: Warning %r1 was declared previous at ispass-2009-BFS.1.sm_30.ptx:27 skipping new declaration
GPGPU-Sim PTX: Warning %r2 was declared previous at ispass-2009-BFS.1.sm_30.ptx:27 skipping new declaration
GPGPU-Sim PTX: Warning %r3 was declared previous at ispass-2009-BFS.1.sm_30.ptx:27 skipping new declaration
GPGPU-Sim PTX: Warning %r4 was declared previous at ispass-2009-BFS.1.sm_30.ptx:27 skipping new declaration
GPGPU-Sim PTX: Warning %r5 was declared previous at ispass-2009-BFS.1.sm_30.ptx:27 skipping new declaration
GPGPU-Sim PTX: Warning %r6 was declared previous at ispass-2009-BFS.1.sm_30.ptx:27 skipping new declaration
GPGPU-Sim PTX: Warning %r7 was declared previous at ispass-2009-BFS.1.sm_30.ptx:27 skipping new declaration
GPGPU-Sim PTX: Warning %r8 was declared previous at ispass-2009-BFS.1.sm_30.ptx:27 skipping new declaration
GPGPU-Sim PTX: Warning %r9 was declared previous at ispass-2009-BFS.1.sm_30.ptx:27 skipping new declaration
GPGPU-Sim PTX: Warning %r10 was declared previous at ispass-2009-BFS.1.sm_30.ptx:27 skipping new declaration
GPGPU-Sim PTX: Warning %r11 was declared previous at ispass-2009-BFS.1.sm_30.ptx:27 skipping new declaration
GPGPU-Sim PTX: Warning %r12 was declared previous at ispass-2009-BFS.1.sm_30.ptx:27 skipping new declaration
GPGPU-Sim PTX: Warning %r13 was declared previous at ispass-2009-BFS.1.sm_30.ptx:27 skipping new declaration
GPGPU-Sim PTX: Warning %r14 was declared previous at ispass-2009-BFS.1.sm_30.ptx:27 skipping new declaration
GPGPU-Sim PTX: Warning %r15 was declared previous at ispass-2009-BFS.1.sm_30.ptx:27 skipping new declaration
GPGPU-Sim PTX: Warning %r16 was declared previous at ispass-2009-BFS.1.sm_30.ptx:27 skipping new declaration
GPGPU-Sim PTX: Warning %r17 was declared previous at ispass-2009-BFS.1.sm_30.ptx:27 skipping new declaration
GPGPU-Sim PTX: Warning %r18 was declared previous at ispass-2009-BFS.1.sm_30.ptx:27 skipping new declaration
GPGPU-Sim PTX: Warning %r19 was declared previous at ispass-2009-BFS.1.sm_30.ptx:27 skipping new declaration
GPGPU-Sim PTX: Warning %r20 was declared previous at ispass-2009-BFS.1.sm_30.ptx:27 skipping new declaration
GPGPU-Sim PTX: Warning %r21 was declared previous at ispass-2009-BFS.1.sm_30.ptx:27 skipping new declaration
GPGPU-Sim PTX: Warning %r22 was declared previous at ispass-2009-BFS.1.sm_30.ptx:27 skipping new declaration
GPGPU-Sim PTX: Warning %r23 was declared previous at ispass-2009-BFS.1.sm_30.ptx:27 skipping new declaration
GPGPU-Sim PTX: Warning %r24 was declared previous at ispass-2009-BFS.1.sm_30.ptx:27 skipping new declaration
GPGPU-Sim PTX: Warning %rd0 was declared previous at ispass-2009-BFS.1.sm_30.ptx:28 skipping new declaration
GPGPU-Sim PTX: Warning %rd1 was declared previous at ispass-2009-BFS.1.sm_30.ptx:28 skipping new declaration
GPGPU-Sim PTX: Warning %rd2 was declared previous at ispass-2009-BFS.1.sm_30.ptx:28 skipping new declaration
GPGPU-Sim PTX: Warning %rd3 was declared previous at ispass-2009-BFS.1.sm_30.ptx:28 skipping new declaration
GPGPU-Sim PTX: Warning %rd4 was declared previous at ispass-2009-BFS.1.sm_30.ptx:28 skipping new declaration
GPGPU-Sim PTX: Warning %rd5 was declared previous at ispass-2009-BFS.1.sm_30.ptx:28 skipping new declaration
GPGPU-Sim PTX: Warning %rd6 was declared previous at ispass-2009-BFS.1.sm_30.ptx:28 skipping new declaration
GPGPU-Sim PTX: Warning %rd7 was declared previous at ispass-2009-BFS.1.sm_30.ptx:28 skipping new declaration
GPGPU-Sim PTX: Warning %rd8 was declared previous at ispass-2009-BFS.1.sm_30.ptx:28 skipping new declaration
GPGPU-Sim PTX: Warning %rd9 was declared previous at ispass-2009-BFS.1.sm_30.ptx:28 skipping new declaration
GPGPU-Sim PTX: Warning %rd10 was declared previous at ispass-2009-BFS.1.sm_30.ptx:28 skipping new declaration
GPGPU-Sim PTX: Warning %rd11 was declared previous at ispass-2009-BFS.1.sm_30.ptx:28 skipping new declaration
GPGPU-Sim PTX: Warning %rd12 was declared previous at ispass-2009-BFS.1.sm_30.ptx:28 skipping new declaration
GPGPU-Sim PTX: Warning %rd13 was declared previous at ispass-2009-BFS.1.sm_30.ptx:28 skipping new declaration
GPGPU-Sim PTX: Warning %rd14 was declared previous at ispass-2009-BFS.1.sm_30.ptx:28 skipping new declaration
GPGPU-Sim PTX: Warning %rd15 was declared previous at ispass-2009-BFS.1.sm_30.ptx:28 skipping new declaration
GPGPU-Sim PTX: Warning %rd16 was declared previous at ispass-2009-BFS.1.sm_30.ptx:28 skipping new declaration
GPGPU-Sim PTX: Warning %rd17 was declared previous at ispass-2009-BFS.1.sm_30.ptx:28 skipping new declaration
GPGPU-Sim PTX: Warning %rd18 was declared previous at ispass-2009-BFS.1.sm_30.ptx:28 skipping new declaration
GPGPU-Sim PTX: Warning %rd19 was declared previous at ispass-2009-BFS.1.sm_30.ptx:28 skipping new declaration
GPGPU-Sim PTX: Warning %rd20 was declared previous at ispass-2009-BFS.1.sm_30.ptx:28 skipping new declaration
GPGPU-Sim PTX: Warning %rd21 was declared previous at ispass-2009-BFS.1.sm_30.ptx:28 skipping new declaration
GPGPU-Sim PTX: Warning %rd22 was declared previous at ispass-2009-BFS.1.sm_30.ptx:28 skipping new declaration
GPGPU-Sim PTX: Warning %rd23 was declared previous at ispass-2009-BFS.1.sm_30.ptx:28 skipping new declaration
GPGPU-Sim PTX: Warning %rd24 was declared previous at ispass-2009-BFS.1.sm_30.ptx:28 skipping new declaration
GPGPU-Sim PTX: Warning %rd25 was declared previous at ispass-2009-BFS.1.sm_30.ptx:28 skipping new declaration
GPGPU-Sim PTX: Warning %rd26 was declared previous at ispass-2009-BFS.1.sm_30.ptx:28 skipping new declaration
GPGPU-Sim PTX: Warning %rd27 was declared previous at ispass-2009-BFS.1.sm_30.ptx:28 skipping new declaration
GPGPU-Sim PTX: Warning %rd28 was declared previous at ispass-2009-BFS.1.sm_30.ptx:28 skipping new declaration
GPGPU-Sim PTX: Warning %rd29 was declared previous at ispass-2009-BFS.1.sm_30.ptx:28 skipping new declaration
GPGPU-Sim PTX: Warning %rd30 was declared previous at ispass-2009-BFS.1.sm_30.ptx:28 skipping new declaration
GPGPU-Sim PTX: Warning %rd31 was declared previous at ispass-2009-BFS.1.sm_30.ptx:28 skipping new declaration
GPGPU-Sim PTX: Warning %rd32 was declared previous at ispass-2009-BFS.1.sm_30.ptx:28 skipping new declaration
GPGPU-Sim PTX: Warning %rd33 was declared previous at ispass-2009-BFS.1.sm_30.ptx:28 skipping new declaration
GPGPU-Sim PTX: Warning %rd34 was declared previous at ispass-2009-BFS.1.sm_30.ptx:28 skipping new declaration
GPGPU-Sim PTX: Warning %rd35 was declared previous at ispass-2009-BFS.2.sm_35.ptx:28 skipping new declaration
GPGPU-Sim PTX: instruction assembly for function '_Z6KernelP4NodePiPbS2_S1_S2_i'...   done.
GPGPU-Sim PTX: finished parsing EMBEDDED .ptx file ispass-2009-BFS.5.sm_62.ptx
GPGPU-Sim PTX: loading globals with explicit initializers... 
GPGPU-Sim PTX: finished loading globals (0 bytes total).
GPGPU-Sim PTX: loading constants with explicit initializers...  done.
GPGPU-Sim PTX: Loading PTXInfo from ispass-2009-BFS.1.sm_30.ptx
GPGPU-Sim PTX: Kernel '_Z6KernelP4NodePiPbS2_S1_S2_i' : regs=19, lmem=0, smem=0, cmem=372
GPGPU-Sim PTX: Loading PTXInfo from ispass-2009-BFS.2.sm_35.ptx
GPGPU-Sim PTX: Kernel '_Z6KernelP4NodePiPbS2_S1_S2_i' : regs=19, lmem=0, smem=0, cmem=372
GPGPU-Sim PTX: Loading PTXInfo from ispass-2009-BFS.3.sm_50.ptx
GPGPU-Sim PTX: Kernel '_Z6KernelP4NodePiPbS2_S1_S2_i' : regs=19, lmem=0, smem=0, cmem=372
GPGPU-Sim PTX: Loading PTXInfo from ispass-2009-BFS.4.sm_60.ptx
GPGPU-Sim PTX: Kernel '_Z6KernelP4NodePiPbS2_S1_S2_i' : regs=19, lmem=0, smem=0, cmem=372
GPGPU-Sim PTX: Loading PTXInfo from ispass-2009-BFS.5.sm_62.ptx
GPGPU-Sim PTX: Kernel '_Z6KernelP4NodePiPbS2_S1_S2_i' : regs=19, lmem=0, smem=0, cmem=372
Reading File
Input file: graph65536.txt
Read File
Copied Everything to GPU memory
GPGPU-Sim PTX: Setting up arguments for 8 bytes starting at 0x7ffd458a0918..
GPGPU-Sim PTX: Setting up arguments for 8 bytes starting at 0x7ffd458a0910..
GPGPU-Sim PTX: Setting up arguments for 8 bytes starting at 0x7ffd458a0908..
GPGPU-Sim PTX: Setting up arguments for 8 bytes starting at 0x7ffd458a0900..
GPGPU-Sim PTX: Setting up arguments for 8 bytes starting at 0x7ffd458a08f8..
GPGPU-Sim PTX: Setting up arguments for 8 bytes starting at 0x7ffd458a08f0..
GPGPU-Sim PTX: Setting up arguments for 4 bytes starting at 0x7ffd458a09c0..

GPGPU-Sim PTX: cudaLaunch for 0x0x403910 (mode=performance simulation) on stream 0
GPGPU-Sim PTX: finding reconvergence points for '_Z6KernelP4NodePiPbS2_S1_S2_i'...
GPGPU-Sim PTX: Finding dominators for '_Z6KernelP4NodePiPbS2_S1_S2_i'...
GPGPU-Sim PTX: Finding immediate dominators for '_Z6KernelP4NodePiPbS2_S1_S2_i'...
GPGPU-Sim PTX: Finding postdominators for '_Z6KernelP4NodePiPbS2_S1_S2_i'...
GPGPU-Sim PTX: Finding immediate postdominators for '_Z6KernelP4NodePiPbS2_S1_S2_i'...
GPGPU-Sim PTX: pre-decoding instructions for '_Z6KernelP4NodePiPbS2_S1_S2_i'...
GPGPU-Sim PTX: reconvergence points for _Z6KernelP4NodePiPbS2_S1_S2_i...
GPGPU-Sim PTX:  1 (potential) branch divergence @  PC=0x840 (ispass-2009-BFS.5.sm_62.ptx:43) @%p1 bra BB0_7;
GPGPU-Sim PTX:    immediate post dominator      @  PC=0x9d0 (ispass-2009-BFS.5.sm_62.ptx:103) ret;
GPGPU-Sim PTX:  2 (potential) branch divergence @  PC=0x870 (ispass-2009-BFS.5.sm_62.ptx:50) @%p2 bra BB0_7;
GPGPU-Sim PTX:    immediate post dominator      @  PC=0x9d0 (ispass-2009-BFS.5.sm_62.ptx:103) ret;
GPGPU-Sim PTX:  3 (potential) branch divergence @  PC=0x8d8 (ispass-2009-BFS.5.sm_62.ptx:64) @%p3 bra BB0_7;
GPGPU-Sim PTX:    immediate post dominator      @  PC=0x9d0 (ispass-2009-BFS.5.sm_62.ptx:103) ret;
GPGPU-Sim PTX:  4 (potential) branch divergence @  PC=0x950 (ispass-2009-BFS.5.sm_62.ptx:82) @%p4 bra BB0_6;
GPGPU-Sim PTX:    immediate post dominator      @  PC=0x9a8 (ispass-2009-BFS.5.sm_62.ptx:96) add.s64 %rd35, %rd35, 4;
GPGPU-Sim PTX:  5 (potential) branch divergence @  PC=0x9c8 (ispass-2009-BFS.5.sm_62.ptx:100) @%p5 bra BB0_4;
GPGPU-Sim PTX:    immediate post dominator      @  PC=0x9d0 (ispass-2009-BFS.5.sm_62.ptx:103) ret;
GPGPU-Sim PTX: ... end of reconvergence points for _Z6KernelP4NodePiPbS2_S1_S2_i
GPGPU-Sim PTX: ... done pre-decoding instructions for '_Z6KernelP4NodePiPbS2_S1_S2_i'.
GPGPU-Sim PTX: pushing kernel '_Z6KernelP4NodePiPbS2_S1_S2_i' to stream 0, gridDim= (256,1,1) blockDim = (256,1,1) 
GPGPU-Sim uArch: Shader 0 bind to kernel 1 '_Z6KernelP4NodePiPbS2_S1_S2_i'
GPGPU-Sim uArch: CTA/core = 6, limited by: threads regs
GPGPU-Sim uArch: Shader 1 bind to kernel 1 '_Z6KernelP4NodePiPbS2_S1_S2_i'
GPGPU-Sim uArch: Shader 2 bind to kernel 1 '_Z6KernelP4NodePiPbS2_S1_S2_i'
GPGPU-Sim uArch: Shader 3 bind to kernel 1 '_Z6KernelP4NodePiPbS2_S1_S2_i'
GPGPU-Sim uArch: Shader 4 bind to kernel 1 '_Z6KernelP4NodePiPbS2_S1_S2_i'
GPGPU-Sim uArch: Shader 5 bind to kernel 1 '_Z6KernelP4NodePiPbS2_S1_S2_i'
GPGPU-Sim uArch: Shader 6 bind to kernel 1 '_Z6KernelP4NodePiPbS2_S1_S2_i'
GPGPU-Sim uArch: Shader 7 bind to kernel 1 '_Z6KernelP4NodePiPbS2_S1_S2_i'
GPGPU-Sim uArch: Shader 8 bind to kernel 1 '_Z6KernelP4NodePiPbS2_S1_S2_i'
GPGPU-Sim uArch: Shader 9 bind to kernel 1 '_Z6KernelP4NodePiPbS2_S1_S2_i'
GPGPU-Sim uArch: Shader 10 bind to kernel 1 '_Z6KernelP4NodePiPbS2_S1_S2_i'
GPGPU-Sim uArch: Shader 11 bind to kernel 1 '_Z6KernelP4NodePiPbS2_S1_S2_i'
GPGPU-Sim uArch: Shader 12 bind to kernel 1 '_Z6KernelP4NodePiPbS2_S1_S2_i'
GPGPU-Sim uArch: Shader 13 bind to kernel 1 '_Z6KernelP4NodePiPbS2_S1_S2_i'
GPGPU-Sim uArch: Shader 14 bind to kernel 1 '_Z6KernelP4NodePiPbS2_S1_S2_i'
Destroy streams for kernel 1: size 0
kernel_name = _Z6KernelP4NodePiPbS2_S1_S2_i 
kernel_launch_uid = 1 
gpu_sim_cycle = 5724
gpu_sim_insn = 1245363
gpu_ipc =     217.5687
gpu_tot_sim_cycle = 5724
gpu_tot_sim_insn = 1245363
gpu_tot_ipc =     217.5687
gpu_tot_issued_cta = 256
gpu_occupancy = 84.1088% 
gpu_tot_occupancy = 84.1088% 
max_total_param_size = 0
gpu_stall_dramfull = 0
gpu_stall_icnt2sh    = 0
partiton_level_parallism =       0.1067
partiton_level_parallism_total  =       0.1067
partiton_level_parallism_util =       1.2269
partiton_level_parallism_util_total  =       1.2269
L2_BW  =       9.1416 GB/Sec
L2_BW_total  =       9.1416 GB/Sec
gpu_total_sim_rate=415121

========= Core cache stats =========
L1I_cache:
	L1I_total_cache_accesses = 22626
	L1I_total_cache_misses = 1442
	L1I_total_cache_miss_rate = 0.0637
	L1I_total_cache_pending_hits = 0
	L1I_total_cache_reservation_fails = 8886
L1D_cache:
	L1D_cache_core[0]: Access = 196, Miss = 67, Miss_rate = 0.342, Pending_hits = 96, Reservation_fails = 0
	L1D_cache_core[1]: Access = 136, Miss = 34, Miss_rate = 0.250, Pending_hits = 102, Reservation_fails = 0
	L1D_cache_core[2]: Access = 136, Miss = 34, Miss_rate = 0.250, Pending_hits = 102, Reservation_fails = 0
	L1D_cache_core[3]: Access = 144, Miss = 36, Miss_rate = 0.250, Pending_hits = 108, Reservation_fails = 0
	L1D_cache_core[4]: Access = 136, Miss = 34, Miss_rate = 0.250, Pending_hits = 102, Reservation_fails = 0
	L1D_cache_core[5]: Access = 144, Miss = 36, Miss_rate = 0.250, Pending_hits = 108, Reservation_fails = 0
	L1D_cache_core[6]: Access = 136, Miss = 34, Miss_rate = 0.250, Pending_hits = 102, Reservation_fails = 0
	L1D_cache_core[7]: Access = 136, Miss = 34, Miss_rate = 0.250, Pending_hits = 102, Reservation_fails = 0
	L1D_cache_core[8]: Access = 136, Miss = 34, Miss_rate = 0.250, Pending_hits = 102, Reservation_fails = 0
	L1D_cache_core[9]: Access = 136, Miss = 34, Miss_rate = 0.250, Pending_hits = 102, Reservation_fails = 0
	L1D_cache_core[10]: Access = 136, Miss = 34, Miss_rate = 0.250, Pending_hits = 102, Reservation_fails = 0
	L1D_cache_core[11]: Access = 136, Miss = 34, Miss_rate = 0.250, Pending_hits = 102, Reservation_fails = 0
	L1D_cache_core[12]: Access = 136, Miss = 34, Miss_rate = 0.250, Pending_hits = 102, Reservation_fails = 0
	L1D_cache_core[13]: Access = 136, Miss = 34, Miss_rate = 0.250, Pending_hits = 102, Reservation_fails = 0
	L1D_cache_core[14]: Access = 136, Miss = 34, Miss_rate = 0.250, Pending_hits = 102, Reservation_fails = 0
	L1D_total_cache_accesses = 2116
	L1D_total_cache_misses = 547
	L1D_total_cache_miss_rate = 0.2585
	L1D_total_cache_pending_hits = 1536
	L1D_total_cache_reservation_fails = 0
	L1D_cache_data_port_util = 0.001
	L1D_cache_fill_port_util = 0.012
L1C_cache:
	L1C_total_cache_accesses = 14336
	L1C_total_cache_misses = 480
	L1C_total_cache_miss_rate = 0.0335
	L1C_total_cache_pending_hits = 0
	L1C_total_cache_reservation_fails = 3254
L1T_cache:
	L1T_total_cache_accesses = 0
	L1T_total_cache_misses = 0
	L1T_total_cache_pending_hits = 0
	L1T_total_cache_reservation_fails = 0

Total_core_cache_stats:
	Total_core_cache_stats_breakdown[GLOBAL_ACC_R][HIT] = 31
	Total_core_cache_stats_breakdown[GLOBAL_ACC_R][HIT_RESERVED] = 1536
	Total_core_cache_stats_breakdown[GLOBAL_ACC_R][MISS] = 523
	Total_core_cache_stats_breakdown[GLOBAL_ACC_R][RESERVATION_FAIL] = 0
	Total_core_cache_stats_breakdown[GLOBAL_ACC_R][SECTOR_MISS] = 0
	Total_core_cache_stats_breakdown[LOCAL_ACC_R][HIT] = 0
	Total_core_cache_stats_breakdown[LOCAL_ACC_R][HIT_RESERVED] = 0
	Total_core_cache_stats_breakdown[LOCAL_ACC_R][MISS] = 0
	Total_core_cache_stats_breakdown[LOCAL_ACC_R][RESERVATION_FAIL] = 0
	Total_core_cache_stats_breakdown[LOCAL_ACC_R][SECTOR_MISS] = 0
	Total_core_cache_stats_breakdown[CONST_ACC_R][HIT] = 13856
	Total_core_cache_stats_breakdown[CONST_ACC_R][HIT_RESERVED] = 0
	Total_core_cache_stats_breakdown[CONST_ACC_R][MISS] = 480
	Total_core_cache_stats_breakdown[CONST_ACC_R][RESERVATION_FAIL] = 3254
	Total_core_cache_stats_breakdown[CONST_ACC_R][SECTOR_MISS] = 0
	Total_core_cache_stats_breakdown[TEXTURE_ACC_R][HIT] = 0
	Total_core_cache_stats_breakdown[TEXTURE_ACC_R][HIT_RESERVED] = 0
	Total_core_cache_stats_breakdown[TEXTURE_ACC_R][MISS] = 0
	Total_core_cache_stats_breakdown[TEXTURE_ACC_R][RESERVATION_FAIL] = 0
	Total_core_cache_stats_breakdown[TEXTURE_ACC_R][SECTOR_MISS] = 0
	Total_core_cache_stats_breakdown[GLOBAL_ACC_W][HIT] = 2
	Total_core_cache_stats_breakdown[GLOBAL_ACC_W][HIT_RESERVED] = 0
	Total_core_cache_stats_breakdown[GLOBAL_ACC_W][MISS] = 24
	Total_core_cache_stats_breakdown[GLOBAL_ACC_W][RESERVATION_FAIL] = 0
	Total_core_cache_stats_breakdown[GLOBAL_ACC_W][SECTOR_MISS] = 0
	Total_core_cache_stats_breakdown[LOCAL_ACC_W][HIT] = 0
	Total_core_cache_stats_breakdown[LOCAL_ACC_W][HIT_RESERVED] = 0
	Total_core_cache_stats_breakdown[LOCAL_ACC_W][MISS] = 0
	Total_core_cache_stats_breakdown[LOCAL_ACC_W][RESERVATION_FAIL] = 0
	Total_core_cache_stats_breakdown[LOCAL_ACC_W][SECTOR_MISS] = 0
	Total_core_cache_stats_breakdown[L1_WRBK_ACC][HIT] = 0
	Total_core_cache_stats_breakdown[L1_WRBK_ACC][HIT_RESERVED] = 0
	Total_core_cache_stats_breakdown[L1_WRBK_ACC][MISS] = 0
	Total_core_cache_stats_breakdown[L1_WRBK_ACC][RESERVATION_FAIL] = 0
	Total_core_cache_stats_breakdown[L1_WRBK_ACC][SECTOR_MISS] = 0
	Total_core_cache_stats_breakdown[L2_WRBK_ACC][HIT] = 0
	Total_core_cache_stats_breakdown[L2_WRBK_ACC][HIT_RESERVED] = 0
	Total_core_cache_stats_breakdown[L2_WRBK_ACC][MISS] = 0
	Total_core_cache_stats_breakdown[L2_WRBK_ACC][RESERVATION_FAIL] = 0
	Total_core_cache_stats_breakdown[L2_WRBK_ACC][SECTOR_MISS] = 0
	Total_core_cache_stats_breakdown[INST_ACC_R][HIT] = 21184
	Total_core_cache_stats_breakdown[INST_ACC_R][HIT_RESERVED] = 0
	Total_core_cache_stats_breakdown[INST_ACC_R][MISS] = 1442
	Total_core_cache_stats_breakdown[INST_ACC_R][RESERVATION_FAIL] = 8886
	Total_core_cache_stats_breakdown[INST_ACC_R][SECTOR_MISS] = 0
	Total_core_cache_stats_breakdown[L1_WR_ALLOC_R][HIT] = 0
	Total_core_cache_stats_breakdown[L1_WR_ALLOC_R][HIT_RESERVED] = 0
	Total_core_cache_stats_breakdown[L1_WR_ALLOC_R][MISS] = 0
	Total_core_cache_stats_breakdown[L1_WR_ALLOC_R][RESERVATION_FAIL] = 0
	Total_core_cache_stats_breakdown[L1_WR_ALLOC_R][SECTOR_MISS] = 0
	Total_core_cache_stats_breakdown[L2_WR_ALLOC_R][HIT] = 0
	Total_core_cache_stats_breakdown[L2_WR_ALLOC_R][HIT_RESERVED] = 0
	Total_core_cache_stats_breakdown[L2_WR_ALLOC_R][MISS] = 0
	Total_core_cache_stats_breakdown[L2_WR_ALLOC_R][RESERVATION_FAIL] = 0
	Total_core_cache_stats_breakdown[L2_WR_ALLOC_R][SECTOR_MISS] = 0
	Total_core_cache_stats_breakdown[GLOBAL_ACC_R][TOTAL_ACCESS] = 2090
	Total_core_cache_stats_breakdown[CONST_ACC_R][TOTAL_ACCESS] = 14336
	Total_core_cache_stats_breakdown[GLOBAL_ACC_W][TOTAL_ACCESS] = 26
	Total_core_cache_stats_breakdown[INST_ACC_R][TOTAL_ACCESS] = 22626

Total_core_cache_fail_stats:
	Total_core_cache_fail_stats_breakdown[CONST_ACC_R][MSHR_MERGE_ENRTY_FAIL] = 3254
	Total_core_cache_fail_stats_breakdown[INST_ACC_R][MSHR_MERGE_ENRTY_FAIL] = 8886
ctas_completed 256, Shader 0 warp_id issue ditsribution:
warp_id:
0, 1, 2, 3, 4, 5, 6, 7, 8, 9, 10, 11, 12, 13, 14, 15, 16, 17, 18, 19, 20, 21, 22, 23, 24, 25, 26, 27, 28, 29, 30, 31, 32, 33, 34, 35, 36, 37, 38, 39, 40, 41, 42, 43, 44, 45, 46, 47, 
distro:
210, 20, 20, 20, 20, 20, 20, 20, 60, 60, 60, 60, 60, 60, 60, 60, 60, 60, 60, 60, 60, 60, 60, 60, 60, 60, 60, 60, 60, 60, 60, 60, 60, 60, 60, 60, 60, 60, 60, 60, 60, 60, 60, 60, 60, 60, 60, 60, 
gpgpu_n_tot_thrd_icount = 1316800
gpgpu_n_tot_w_icount = 41150
gpgpu_n_stall_shd_mem = 3254
gpgpu_n_mem_read_local = 0
gpgpu_n_mem_write_local = 0
gpgpu_n_mem_read_global = 523
gpgpu_n_mem_write_global = 26
gpgpu_n_mem_texture = 0
gpgpu_n_mem_const = 15
gpgpu_n_load_insn  = 65578
gpgpu_n_store_insn = 26
gpgpu_n_shmem_insn = 0
gpgpu_n_sstarr_insn = 0
gpgpu_n_tex_insn = 0
gpgpu_n_const_mem_insn = 0
gpgpu_n_param_mem_insn = 458752
gpgpu_n_shmem_bkconflict = 0
gpgpu_n_cache_bkconflict = 0
gpgpu_n_intrawarp_mshr_merge = 0
gpgpu_n_cmem_portconflict = 3254
gpgpu_stall_shd_mem[c_mem][resource_stall] = 3254
gpgpu_stall_shd_mem[s_mem][bk_conf] = 0
gpgpu_stall_shd_mem[gl_mem][resource_stall] = 0
gpgpu_stall_shd_mem[gl_mem][coal_stall] = 0
gpgpu_stall_shd_mem[gl_mem][data_port_stall] = 0
gpu_reg_bank_conflict_stalls = 0
Warp Occupancy Distribution:
Stall:14074	W0_Idle:19646	W0_Scoreboard:12922	W1:190	W2:0	W3:0	W4:0	W5:0	W6:0	W7:0	W8:0	W9:0	W10:0	W11:0	W12:0	W13:0	W14:0	W15:0	W16:0	W17:0	W18:0	W19:0	W20:0	W21:0	W22:0	W23:0	W24:0	W25:0	W26:0	W27:0	W28:0	W29:0	W30:0	W31:0	W32:40960
single_issue_nums: WS0:20670	WS1:20480	
dual_issue_nums: WS0:0	WS1:0	
traffic_breakdown_coretomem[CONST_ACC_R] = 120 {8:15,}
traffic_breakdown_coretomem[GLOBAL_ACC_R] = 4184 {8:523,}
traffic_breakdown_coretomem[GLOBAL_ACC_W] = 1040 {40:26,}
traffic_breakdown_coretomem[INST_ACC_R] = 376 {8:47,}
traffic_breakdown_memtocore[CONST_ACC_R] = 1200 {40:30,}
traffic_breakdown_memtocore[GLOBAL_ACC_R] = 83680 {40:2092,}
traffic_breakdown_memtocore[GLOBAL_ACC_W] = 208 {8:26,}
traffic_breakdown_memtocore[INST_ACC_R] = 7520 {40:188,}
maxmflatency = 264 
max_icnt2mem_latency = 44 
maxmrqlatency = 12 
max_icnt2sh_latency = 21 
averagemflatency = 134 
avg_icnt2mem_latency = 11 
avg_mrq_latency = 5 
avg_icnt2sh_latency = 7 
mrq_lat_table:12 	5 	0 	13 	0 	0 	0 	0 	0 	0 	0 	0 	0 	0 	0 	0 	0 	0 	0 	0 	0 	0 	0 	0 	0 	0 	0 	0 	0 	0 	0 	0 	
dq_lat_table:0 	0 	0 	0 	0 	0 	0 	0 	0 	0 	0 	0 	0 	0 	0 	0 	0 	0 	0 	0 	0 	0 	0 	0 	0 	0 	0 	0 	0 	0 	0 	0 	
mf_lat_table:0 	0 	0 	0 	0 	0 	0 	2133 	15 	0 	0 	0 	0 	0 	0 	0 	0 	0 	0 	0 	0 	0 	0 	0 	0 	0 	0 	0 	0 	0 	0 	0 	
icnt2mem_lat_table:0 	0 	28 	28 	6 	549 	0 	0 	0 	0 	0 	0 	0 	0 	0 	0 	0 	0 	0 	0 	0 	0 	0 	0 	
icnt2sh_lat_table:0 	0 	1965 	166 	17 	0 	0 	0 	0 	0 	0 	0 	0 	0 	0 	0 	0 	0 	0 	0 	0 	0 	0 	0 	
mf_lat_pw_table:0 	0 	0 	0 	0 	0 	0 	10 	0 	0 	0 	0 	0 	0 	0 	0 	0 	0 	0 	0 	0 	0 	0 	0 	0 	0 	0 	0 	0 	0 	0 	0 	
maximum concurrent accesses to same row:
dram[0]:         0         0         0         0         0         0         0         0         0         0         0         0         0         0         0         0 
dram[1]:         0         0         0         0         0         0         0         0         0         0         0         0         0         0         0         0 
dram[2]:         0         0         0         0         0         0         0         0         0         0         0         0         0         0         0         0 
dram[3]:         0         0         0         0         0         0         0         0         0         0         0         0         0         0         0         0 
dram[4]:         0         0         0         0         0         0         0         0         0         0         0         0         0         0         0         0 
dram[5]:         0         0         0         0         0         0         0         0         0         0         0         0         0         0         0         0 
maximum service time to same row:
dram[0]:         0         0         0         0         0         0         0         0         0         0         0         0         0         0         0         0 
dram[1]:         0       232         0         0         0         0         0         0         0         0         0         0         0         0         0         0 
dram[2]:         0       769         0         0         0      2407         0         0         0         0         0         0         0         0         0         0 
dram[3]:         0      1409         0         0         0         0         0         0         0         0         0         0         0         0         0         0 
dram[4]:         0         0         0         0         0         0         0         0         0         0         0         0         0         0         0         0 
dram[5]:         0         0         0         0         0         0         0         0         0         0         0         0         0         0         0         0 
average row accesses per activate:
dram[0]:       inf      -nan      -nan      -nan      -nan      -nan      -nan      -nan      -nan      -nan      -nan      -nan      -nan      -nan      -nan      -nan 
dram[1]:      -nan  4.000000      -nan      -nan      -nan      -nan      -nan      -nan      -nan      -nan      -nan      -nan      -nan      -nan      -nan      -nan 
dram[2]:      -nan  8.000000      -nan      -nan      -nan  4.000000      -nan      -nan      -nan      -nan      -nan      -nan      -nan      -nan      -nan      -nan 
dram[3]:      -nan  8.000000      -nan      -nan      -nan      -nan      -nan      -nan      -nan      -nan      -nan      -nan      -nan      -nan      -nan      -nan 
dram[4]:      -nan      -nan      -nan      -nan      -nan      -nan      -nan      -nan      -nan      -nan      -nan      -nan      -nan      -nan      -nan      -nan 
dram[5]:      -nan      -nan      -nan      -nan      -nan      -nan      -nan      -nan      -nan      -nan      -nan      -nan      -nan      -nan      -nan      -nan 
average row locality = 30/4 = 7.500000
number of total memory accesses made:
dram[0]:         0         0         0         0         0         0         0         0         0         0         0         0         0         0         0         0 
dram[1]:         0         0         0         0         0         0         0         0         0         0         0         0         0         0         0         0 
dram[2]:         0         0         0         0         0         0         0         0         0         0         0         0         0         0         0         0 
dram[3]:         0         0         0         0         0         0         0         0         0         0         0         0         0         0         0         0 
dram[4]:         0         0         0         0         0         0         0         0         0         0         0         0         0         0         0         0 
dram[5]:         0         0         0         0         0         0         0         0         0         0         0         0         0         0         0         0 
total accesses: 0
min_bank_accesses = 0!
min_chip_accesses = 0!
number of total read accesses:
dram[0]:         0         0         0         0         0         0         0         0         0         0         0         0         0         0         0         0 
dram[1]:         0         0         0         0         0         0         0         0         0         0         0         0         0         0         0         0 
dram[2]:         0         0         0         0         0         0         0         0         0         0         0         0         0         0         0         0 
dram[3]:         0         0         0         0         0         0         0         0         0         0         0         0         0         0         0         0 
dram[4]:         0         0         0         0         0         0         0         0         0         0         0         0         0         0         0         0 
dram[5]:         0         0         0         0         0         0         0         0         0         0         0         0         0         0         0         0 
total dram reads = 0
min_bank_accesses = 0!
min_chip_accesses = 0!
number of total write accesses:
dram[0]:         0         0         0         0         0         0         0         0         0         0         0         0         0         0         0         0 
dram[1]:         0         0         0         0         0         0         0         0         0         0         0         0         0         0         0         0 
dram[2]:         0         0         0         0         0         0         0         0         0         0         0         0         0         0         0         0 
dram[3]:         0         0         0         0         0         0         0         0         0         0         0         0         0         0         0         0 
dram[4]:         0         0         0         0         0         0         0         0         0         0         0         0         0         0         0         0 
dram[5]:         0         0         0         0         0         0         0         0         0         0         0         0         0         0         0         0 
total dram writes = 0
min_bank_accesses = 0!
min_chip_accesses = 0!
average mf latency per bank:
dram[0]:     none      none      none      none      none      none      none      none      none      none      none      none      none      none      none      none  
[...]
dram[4]:       1468      1359      1314      1446      1514      1422      1383      1374      1193      1259      1411      1511      1448      1269      1358      1399
dram[5]:       1460      1464      1228      1325      1474      1679      1412      1454      1242      1276      1351      1525      1430      1394      1256      1341
Memory Partition 0: 
Cache L2_bank_000:
MSHR contents

Cache L2_bank_001:
MSHR contents

In Dram Latency Queue (total = 0): 
DRAM[0]: 16 bks, busW=4 BL=8 CL=12, tRRD=6 tCCD=2, tRCD=12 tRAS=28 tRP=12 tRC=40
n_cmd=656365 n_nop=592805 n_act=6110 n_pre=6094 n_ref_event=15271376 n_req=49800 n_rd=46531 n_rd_L2_A=0 n_write=0 n_wr_bk=5163 bw_util=0.1575
n_activity=272196 dram_eff=0.3798
bk0: 3311a 626601i bk1: 3250a 626860i bk2: 3453a 625684i bk3: 3206a 625147i bk4: 3164a 626066i bk5: 3341a 625631i bk6: 2798a 635021i bk7: 2573a 638459i bk8: 2476a 643817i bk9: 2512a 643599i bk10: 2652a 635160i bk11: 2517a 635343i bk12: 2847a 626379i bk13: 2890a 626676i bk14: 2832a 628872i bk15: 2709a 628215i 

------------------------------------------------------------------------

Row_Buffer_Locality = 0.877490
Row_Buffer_Locality_read = 0.909867
Row_Buffer_Locality_write = 0.416641
Bank_Level_Parallism = 2.070141
Bank_Level_Parallism_Col = 0.000000
Bank_Level_Parallism_Ready = 1.358370
write_to_read_ratio_blp_rw_average = 0.000000
GrpLevelPara = 0.000000 

BW Util details:
bwutil = 0.157516 
total_CMD = 656365 
util_bw = 103388 
Wasted_Col = 81428 
Wasted_Row = 36147 
Idle = 435402 

BW Util Bottlenecks: 
RCDc_limit = 38581 
RCDWRc_limit = 8778 
WTRc_limit = 8168 
RTWc_limit = 30000 
CCDLc_limit = 36009 
rwq = 0 
CCDLc_limit_alone = 29510 
WTRc_limit_alone = 7748 
RTWc_limit_alone = 23921 

Commands details: 
total_CMD = 656365 
n_nop = 592805 
Read = 46531 
Write = 0 
L2_Alloc = 0 
L2_WB = 5163 
n_act = 6110 
n_pre = 6094 
n_ref = 15271376 
n_req = 49800 
total_req = 51694 

Dual Bus Interface Util: 
issued_total_row = 12204 
issued_total_col = 51694 
Row_Bus_Util =  0.018593 
CoL_Bus_Util = 0.078758 
Either_Row_CoL_Bus_Util = 0.096836 
Issued_on_Two_Bus_Simul_Util = 0.000515 
issued_two_Eff = 0.005318 
queue_avg = 2.310451 


dram_util_bins: 0 0 0 0 0 0 0 0 0 0
dram_eff_bins: 0 0 0 0 0 0 0 0 0 0
mrqq: max=64 avg=2.31045
Memory Partition 1: 
Cache L2_bank_002:
MSHR contents

Cache L2_bank_003:
MSHR contents

In Dram Latency Queue (total = 0): 
DRAM[1]: 16 bks, busW=4 BL=8 CL=12, tRRD=6 tCCD=2, tRCD=12 tRAS=28 tRP=12 tRC=40
n_cmd=656365 n_nop=593115 n_act=6042 n_pre=6026 n_ref_event=0 n_req=49631 n_rd=46388 n_rd_L2_A=0 n_write=0 n_wr_bk=5159 bw_util=0.1571
n_activity=271682 dram_eff=0.3795
bk0: 3184a 629953i bk1: 3404a 626147i bk2: 3289a 626938i bk3: 3298a 625131i bk4: 3109a 625699i bk5: 3328a 624207i bk6: 2512a 637892i bk7: 2704a 638047i bk8: 2528a 644922i bk9: 2648a 643229i bk10: 2416a 637767i bk11: 2618a 634316i bk12: 2944a 625533i bk13: 3008a 625313i bk14: 2680a 631412i bk15: 2718a 630600i 

------------------------------------------------------------------------

Row_Buffer_Locality = 0.878403
Row_Buffer_Locality_read = 0.911033
Row_Buffer_Locality_write = 0.411656
Bank_Level_Parallism = 2.033180
Bank_Level_Parallism_Col = 1.986219
Bank_Level_Parallism_Ready = 1.332384
write_to_read_ratio_blp_rw_average = 0.264125
GrpLevelPara = 1.455769 

BW Util details:
bwutil = 0.157068 
total_CMD = 656365 
util_bw = 103094 
Wasted_Col = 81131 
Wasted_Row = 35887 
Idle = 436253 

BW Util Bottlenecks: 
RCDc_limit = 37795 
RCDWRc_limit = 8662 
WTRc_limit = 8045 
RTWc_limit = 29920 
CCDLc_limit = 35784 
rwq = 0 
CCDLc_limit_alone = 29356 
WTRc_limit_alone = 7578 
RTWc_limit_alone = 23959 

Commands details: 
total_CMD = 656365 
n_nop = 593115 
Read = 46388 
Write = 0 
L2_Alloc = 0 
L2_WB = 5159 
n_act = 6042 
n_pre = 6026 
n_ref = 0 
n_req = 49631 
total_req = 51547 

Dual Bus Interface Util: 
issued_total_row = 12068 
issued_total_col = 51547 
Row_Bus_Util =  0.018386 
CoL_Bus_Util = 0.078534 
Either_Row_CoL_Bus_Util = 0.096364 
Issued_on_Two_Bus_Simul_Util = 0.000556 
issued_two_Eff = 0.005771 
queue_avg = 2.255038 


dram_util_bins: 0 0 0 0 0 0 0 0 0 0
dram_eff_bins: 0 0 0 0 0 0 0 0 0 0
mrqq: max=64 avg=2.25504
Memory Partition 2: 
Cache L2_bank_004:
MSHR contents

Cache L2_bank_005:
MSHR contents

In Dram Latency Queue (total = 0): 
DRAM[2]: 16 bks, busW=4 BL=8 CL=12, tRRD=6 tCCD=2, tRCD=12 tRAS=28 tRP=12 tRC=40
n_cmd=656365 n_nop=588067 n_act=6696 n_pre=6680 n_ref_event=0 n_req=53237 n_rd=49780 n_rd_L2_A=0 n_write=0 n_wr_bk=5475 bw_util=0.1684
n_activity=297332 dram_eff=0.3717
bk0: 3232a 627502i bk1: 3890a 623795i bk2: 3439a 625729i bk3: 3600a 622409i bk4: 3200a 626783i bk5: 3534a 623171i bk6: 2596a 637551i bk7: 2932a 635141i bk8: 2312a 645475i bk9: 3064a 641575i bk10: 2576a 636164i bk11: 2841a 630804i bk12: 2912a 627781i bk13: 3546a 620718i bk14: 2880a 629267i bk15: 3226a 624537i 

------------------------------------------------------------------------

Row_Buffer_Locality = 0.874354
Row_Buffer_Locality_read = 0.907232
Row_Buffer_Locality_write = 0.400926
Bank_Level_Parallism = 1.990411
Bank_Level_Parallism_Col = 1.941918
Bank_Level_Parallism_Ready = 1.322663
write_to_read_ratio_blp_rw_average = 0.260496
GrpLevelPara = 1.424109 

BW Util details:
bwutil = 0.168367 
total_CMD = 656365 
util_bw = 110510 
Wasted_Col = 90076 
Wasted_Row = 40454 
Idle = 415325 

BW Util Bottlenecks: 
RCDc_limit = 42955 
RCDWRc_limit = 9691 
WTRc_limit = 8999 
RTWc_limit = 32424 
CCDLc_limit = 40025 
rwq = 0 
CCDLc_limit_alone = 32642 
WTRc_limit_alone = 8474 
RTWc_limit_alone = 25566 

Commands details: 
total_CMD = 656365 
n_nop = 588067 
Read = 49780 
Write = 0 
L2_Alloc = 0 
L2_WB = 5475 
n_act = 6696 
n_pre = 6680 
n_ref = 0 
n_req = 53237 
total_req = 55255 

Dual Bus Interface Util: 
issued_total_row = 13376 
issued_total_col = 55255 
Row_Bus_Util =  0.020379 
CoL_Bus_Util = 0.084183 
Either_Row_CoL_Bus_Util = 0.104055 
Issued_on_Two_Bus_Simul_Util = 0.000507 
issued_two_Eff = 0.004876 
queue_avg = 2.353398 


dram_util_bins: 0 0 0 0 0 0 0 0 0 0
dram_eff_bins: 0 0 0 0 0 0 0 0 0 0
mrqq: max=64 avg=2.3534
Memory Partition 3: 
Cache L2_bank_006:
MSHR contents

Cache L2_bank_007:
MSHR contents

In Dram Latency Queue (total = 0): 
DRAM[3]: 16 bks, busW=4 BL=8 CL=12, tRRD=6 tCCD=2, tRCD=12 tRAS=28 tRP=12 tRC=40
n_cmd=656365 n_nop=589170 n_act=6583 n_pre=6567 n_ref_event=0 n_req=52474 n_rd=49046 n_rd_L2_A=0 n_write=0 n_wr_bk=5383 bw_util=0.1658
n_activity=282665 dram_eff=0.3851
bk0: 3540a 625788i bk1: 3576a 627969i bk2: 3624a 624123i bk3: 3597a 622055i bk4: 3232a 625171i bk5: 3252a 625147i bk6: 2641a 634653i bk7: 2823a 636320i bk8: 2672a 643206i bk9: 2736a 643528i bk10: 2636a 635305i bk11: 2672a 631312i bk12: 3050a 623463i bk13: 3192a 620112i bk14: 2804a 628052i bk15: 2999a 626231i 

------------------------------------------------------------------------

Row_Buffer_Locality = 0.874643
Row_Buffer_Locality_read = 0.907271
Row_Buffer_Locality_write = 0.407818
Bank_Level_Parallism = 2.102134
Bank_Level_Parallism_Col = 0.000000
Bank_Level_Parallism_Ready = 1.341718
write_to_read_ratio_blp_rw_average = 0.000000
GrpLevelPara = 0.000000 

BW Util details:
bwutil = 0.165850 
total_CMD = 656365 
util_bw = 108858 
Wasted_Col = 84745 
Wasted_Row = 37044 
Idle = 425718 

BW Util Bottlenecks: 
RCDc_limit = 40856 
RCDWRc_limit = 9188 
WTRc_limit = 9086 
RTWc_limit = 32922 
CCDLc_limit = 38220 
rwq = 0 
CCDLc_limit_alone = 31227 
WTRc_limit_alone = 8548 
RTWc_limit_alone = 26467 

Commands details: 
total_CMD = 656365 
n_nop = 589170 
Read = 49046 
Write = 0 
L2_Alloc = 0 
L2_WB = 5383 
n_act = 6583 
n_pre = 6567 
n_ref = 0 
n_req = 52474 
total_req = 54429 

Dual Bus Interface Util: 
issued_total_row = 13150 
issued_total_col = 54429 
Row_Bus_Util =  0.020035 
CoL_Bus_Util = 0.082925 
Either_Row_CoL_Bus_Util = 0.102374 
Issued_on_Two_Bus_Simul_Util = 0.000585 
issued_two_Eff = 0.005715 
queue_avg = 2.442156 


dram_util_bins: 0 0 0 0 0 0 0 0 0 0
dram_eff_bins: 0 0 0 0 0 0 0 0 0 0
mrqq: max=64 avg=2.44216
Memory Partition 4: 
Cache L2_bank_008:
MSHR contents

Cache L2_bank_009:
MSHR contents

In Dram Latency Queue (total = 0): 
DRAM[4]: 16 bks, busW=4 BL=8 CL=12, tRRD=6 tCCD=2, tRCD=12 tRAS=28 tRP=12 tRC=40
n_cmd=656365 n_nop=590672 n_act=6312 n_pre=6296 n_ref_event=0 n_req=51495 n_rd=48124 n_rd_L2_A=0 n_write=0 n_wr_bk=5351 bw_util=0.1629
n_activity=273134 dram_eff=0.3916
bk0: 3520a 626930i bk1: 3341a 624526i bk2: 3478a 624492i bk3: 3510a 625076i bk4: 3204a 624238i bk5: 3266a 624448i bk6: 2560a 636623i bk7: 2734a 634943i bk8: 2816a 642579i bk9: 2688a 643659i bk10: 2481a 634219i bk11: 2612a 631505i bk12: 3112a 623283i bk13: 3124a 625276i bk14: 2805a 629505i bk15: 2873a 629850i 

------------------------------------------------------------------------

Row_Buffer_Locality = 0.877600
Row_Buffer_Locality_read = 0.910024
Row_Buffer_Locality_write = 0.414714
Bank_Level_Parallism = 2.124299
Bank_Level_Parallism_Col = 2.064168
Bank_Level_Parallism_Ready = 1.363808
write_to_read_ratio_blp_rw_average = 0.270409
GrpLevelPara = 1.505322 

BW Util details:
bwutil = 0.162943 
total_CMD = 656365 
util_bw = 106950 
Wasted_Col = 81882 
Wasted_Row = 34887 
Idle = 432646 

BW Util Bottlenecks: 
RCDc_limit = 38622 
RCDWRc_limit = 8833 
WTRc_limit = 8495 
RTWc_limit = 33071 
CCDLc_limit = 37237 
rwq = 0 
CCDLc_limit_alone = 30245 
WTRc_limit_alone = 8029 
RTWc_limit_alone = 26545 

Commands details: 
total_CMD = 656365 
n_nop = 590672 
Read = 48124 
Write = 0 
L2_Alloc = 0 
L2_WB = 5351 
n_act = 6312 
n_pre = 6296 
n_ref = 0 
n_req = 51495 
total_req = 53475 

Dual Bus Interface Util: 
issued_total_row = 12608 
issued_total_col = 53475 
Row_Bus_Util =  0.019209 
CoL_Bus_Util = 0.081471 
Either_Row_CoL_Bus_Util = 0.100086 
Issued_on_Two_Bus_Simul_Util = 0.000594 
issued_two_Eff = 0.005937 
queue_avg = 2.439889 


dram_util_bins: 0 0 0 0 0 0 0 0 0 0
dram_eff_bins: 0 0 0 0 0 0 0 0 0 0
mrqq: max=64 avg=2.43989
Memory Partition 5: 
Cache L2_bank_010:
MSHR contents

Cache L2_bank_011:
MSHR contents

In Dram Latency Queue (total = 0): 
DRAM[5]: 16 bks, busW=4 BL=8 CL=12, tRRD=6 tCCD=2, tRCD=12 tRAS=28 tRP=12 tRC=40
n_cmd=656365 n_nop=593305 n_act=5886 n_pre=5870 n_ref_event=4562280503665652019 n_req=49727 n_rd=46489 n_rd_L2_A=0 n_write=0 n_wr_bk=5139 bw_util=0.1573
n_activity=269004 dram_eff=0.3838
bk0: 3218a 628084i bk1: 3327a 627249i bk2: 3244a 627854i bk3: 3417a 626204i bk4: 3182a 627875i bk5: 3161a 626260i bk6: 2649a 637250i bk7: 2681a 636127i bk8: 2576a 643481i bk9: 2564a 645174i bk10: 2440a 635455i bk11: 2693a 633589i bk12: 2978a 622157i bk13: 2958a 625225i bk14: 2644a 631777i bk15: 2757a 629351i 

------------------------------------------------------------------------

Row_Buffer_Locality = 0.881815
Row_Buffer_Locality_read = 0.913270
Row_Buffer_Locality_write = 0.430204
Bank_Level_Parallism = 2.074183
Bank_Level_Parallism_Col = 2.331096
Bank_Level_Parallism_Ready = 1.348526
write_to_read_ratio_blp_rw_average = 0.265654
GrpLevelPara = 1.463255 

BW Util details:
bwutil = 0.157315 
total_CMD = 656365 
util_bw = 103256 
Wasted_Col = 79947 
Wasted_Row = 34761 
Idle = 438401 

BW Util Bottlenecks: 
RCDc_limit = 37090 
RCDWRc_limit = 8467 
WTRc_limit = 7736 
RTWc_limit = 30814 
CCDLc_limit = 36155 
rwq = 0 
CCDLc_limit_alone = 29578 
WTRc_limit_alone = 7291 
RTWc_limit_alone = 24682 

Commands details: 
total_CMD = 656365 
n_nop = 593305 
Read = 46489 
Write = 0 
L2_Alloc = 0 
L2_WB = 5139 
n_act = 5886 
n_pre = 5870 
n_ref = 4562280503665652019 
n_req = 49727 
total_req = 51628 

Dual Bus Interface Util: 
issued_total_row = 11756 
issued_total_col = 51628 
Row_Bus_Util =  0.017911 
CoL_Bus_Util = 0.078657 
Either_Row_CoL_Bus_Util = 0.096075 
Issued_on_Two_Bus_Simul_Util = 0.000494 
issued_two_Eff = 0.005138 
queue_avg = 2.349982 


dram_util_bins: 0 0 0 0 0 0 0 0 0 0
dram_eff_bins: 0 0 0 0 0 0 0 0 0 0
mrqq: max=64 avg=2.34998

========= L2 cache stats =========
L2_cache_bank[0]: Access = 250756, Miss = 39918, Miss_rate = 0.159, Pending_hits = 27, Reservation_fails = 109
L2_cache_bank[1]: Access = 244856, Miss = 37722, Miss_rate = 0.154, Pending_hits = 51, Reservation_fails = 472
L2_cache_bank[2]: Access = 248872, Miss = 36357, Miss_rate = 0.146, Pending_hits = 10, Reservation_fails = 6
L2_cache_bank[3]: Access = 246940, Miss = 37629, Miss_rate = 0.152, Pending_hits = 54, Reservation_fails = 114
L2_cache_bank[4]: Access = 251681, Miss = 37484, Miss_rate = 0.149, Pending_hits = 28, Reservation_fails = 2
L2_cache_bank[5]: Access = 285105, Miss = 61718, Miss_rate = 0.216, Pending_hits = 61, Reservation_fails = 117
L2_cache_bank[6]: Access = 251849, Miss = 38915, Miss_rate = 0.155, Pending_hits = 30, Reservation_fails = 4
L2_cache_bank[7]: Access = 247190, Miss = 40479, Miss_rate = 0.164, Pending_hits = 39, Reservation_fails = 113
L2_cache_bank[8]: Access = 246702, Miss = 39461, Miss_rate = 0.160, Pending_hits = 40, Reservation_fails = 11
L2_cache_bank[9]: Access = 247066, Miss = 39534, Miss_rate = 0.160, Pending_hits = 47, Reservation_fails = 4
L2_cache_bank[10]: Access = 245030, Miss = 37468, Miss_rate = 0.153, Pending_hits = 24, Reservation_fails = 4
L2_cache_bank[11]: Access = 247607, Miss = 38154, Miss_rate = 0.154, Pending_hits = 14, Reservation_fails = 7
L2_total_cache_accesses = 3013654
L2_total_cache_misses = 484839
L2_total_cache_miss_rate = 0.1609
L2_total_cache_pending_hits = 425
L2_total_cache_reservation_fails = 963
L2_total_cache_breakdown:
	L2_cache_stats_breakdown[GLOBAL_ACC_R][HIT] = 2332266
	L2_cache_stats_breakdown[GLOBAL_ACC_R][HIT_RESERVED] = 270
	L2_cache_stats_breakdown[GLOBAL_ACC_R][MISS] = 68187
	L2_cache_stats_breakdown[GLOBAL_ACC_R][RESERVATION_FAIL] = 534
	L2_cache_stats_breakdown[GLOBAL_ACC_R][SECTOR_MISS] = 218149
	L2_cache_stats_breakdown[LOCAL_ACC_R][HIT] = 0
	L2_cache_stats_breakdown[LOCAL_ACC_R][HIT_RESERVED] = 0
	L2_cache_stats_breakdown[LOCAL_ACC_R][MISS] = 0
	L2_cache_stats_breakdown[LOCAL_ACC_R][RESERVATION_FAIL] = 0
	L2_cache_stats_breakdown[LOCAL_ACC_R][SECTOR_MISS] = 0
	L2_cache_stats_breakdown[CONST_ACC_R][HIT] = 22
	L2_cache_stats_breakdown[CONST_ACC_R][HIT_RESERVED] = 6
	L2_cache_stats_breakdown[CONST_ACC_R][MISS] = 1
	L2_cache_stats_breakdown[CONST_ACC_R][RESERVATION_FAIL] = 106
	L2_cache_stats_breakdown[CONST_ACC_R][SECTOR_MISS] = 1
	L2_cache_stats_breakdown[TEXTURE_ACC_R][HIT] = 0
	L2_cache_stats_breakdown[TEXTURE_ACC_R][HIT_RESERVED] = 0
	L2_cache_stats_breakdown[TEXTURE_ACC_R][MISS] = 0
	L2_cache_stats_breakdown[TEXTURE_ACC_R][RESERVATION_FAIL] = 0
	L2_cache_stats_breakdown[TEXTURE_ACC_R][SECTOR_MISS] = 0
	L2_cache_stats_breakdown[GLOBAL_ACC_W][HIT] = 195858
	L2_cache_stats_breakdown[GLOBAL_ACC_W][HIT_RESERVED] = 113
	L2_cache_stats_breakdown[GLOBAL_ACC_W][MISS] = 16145
	L2_cache_stats_breakdown[GLOBAL_ACC_W][RESERVATION_FAIL] = 0
	L2_cache_stats_breakdown[GLOBAL_ACC_W][SECTOR_MISS] = 182336
	L2_cache_stats_breakdown[LOCAL_ACC_W][HIT] = 0
	L2_cache_stats_breakdown[LOCAL_ACC_W][HIT_RESERVED] = 0
	L2_cache_stats_breakdown[LOCAL_ACC_W][MISS] = 0
	L2_cache_stats_breakdown[LOCAL_ACC_W][RESERVATION_FAIL] = 0
	L2_cache_stats_breakdown[LOCAL_ACC_W][SECTOR_MISS] = 0
	L2_cache_stats_breakdown[L1_WRBK_ACC][HIT] = 0
	L2_cache_stats_breakdown[L1_WRBK_ACC][HIT_RESERVED] = 0
	L2_cache_stats_breakdown[L1_WRBK_ACC][MISS] = 0
	L2_cache_stats_breakdown[L1_WRBK_ACC][RESERVATION_FAIL] = 0
	L2_cache_stats_breakdown[L1_WRBK_ACC][SECTOR_MISS] = 0
	L2_cache_stats_breakdown[L2_WRBK_ACC][HIT] = 0
	L2_cache_stats_breakdown[L2_WRBK_ACC][HIT_RESERVED] = 0
	L2_cache_stats_breakdown[L2_WRBK_ACC][MISS] = 0
	L2_cache_stats_breakdown[L2_WRBK_ACC][RESERVATION_FAIL] = 0
	L2_cache_stats_breakdown[L2_WRBK_ACC][SECTOR_MISS] = 0
	L2_cache_stats_breakdown[INST_ACC_R][HIT] = 244
	L2_cache_stats_breakdown[INST_ACC_R][HIT_RESERVED] = 36
	L2_cache_stats_breakdown[INST_ACC_R][MISS] = 5
	L2_cache_stats_breakdown[INST_ACC_R][RESERVATION_FAIL] = 323
	L2_cache_stats_breakdown[INST_ACC_R][SECTOR_MISS] = 15
	L2_cache_stats_breakdown[L1_WR_ALLOC_R][HIT] = 0
	L2_cache_stats_breakdown[L1_WR_ALLOC_R][HIT_RESERVED] = 0
	L2_cache_stats_breakdown[L1_WR_ALLOC_R][MISS] = 0
	L2_cache_stats_breakdown[L1_WR_ALLOC_R][RESERVATION_FAIL] = 0
	L2_cache_stats_breakdown[L1_WR_ALLOC_R][SECTOR_MISS] = 0
	L2_cache_stats_breakdown[L2_WR_ALLOC_R][HIT] = 0
	L2_cache_stats_breakdown[L2_WR_ALLOC_R][HIT_RESERVED] = 0
	L2_cache_stats_breakdown[L2_WR_ALLOC_R][MISS] = 0
	L2_cache_stats_breakdown[L2_WR_ALLOC_R][RESERVATION_FAIL] = 0
	L2_cache_stats_breakdown[L2_WR_ALLOC_R][SECTOR_MISS] = 0
	L2_cache_stats_breakdown[GLOBAL_ACC_R][TOTAL_ACCESS] = 2618872
	L2_cache_stats_breakdown[CONST_ACC_R][TOTAL_ACCESS] = 30
	L2_cache_stats_breakdown[GLOBAL_ACC_W][TOTAL_ACCESS] = 394452
	L2_cache_stats_breakdown[INST_ACC_R][TOTAL_ACCESS] = 300
L2_total_cache_reservation_fail_breakdown:
	L2_cache_stats_fail_breakdown[GLOBAL_ACC_R][MISS_QUEUE_FULL] = 71
	L2_cache_stats_fail_breakdown[GLOBAL_ACC_R][MSHR_MERGE_ENRTY_FAIL] = 463
	L2_cache_stats_fail_breakdown[CONST_ACC_R][MSHR_MERGE_ENRTY_FAIL] = 106
	L2_cache_stats_fail_breakdown[INST_ACC_R][MSHR_MERGE_ENRTY_FAIL] = 323
L2_cache_data_port_util = 0.425
L2_cache_fill_port_util = 0.048

icnt_total_pkts_mem_to_simt=3013654
icnt_total_pkts_simt_to_mem=1049260
LD_mem_lat_dist  0 0 0 0 0 0 0 0 0 0 0 0 0 0 0 0 0 0 0 0 0 0 0 0 0 0 0
ST_mem_lat_dist  0 0 0 0 0 0 0 0 0 0 0 0 0 0 0 0 0 0 0 0 0 0 0 0 0 0 0
----------------------------Interconnect-DETAILS--------------------------------
Class 0:
Packet latency average = 5.00155
	minimum = 5
	maximum = 6
Network latency average = 5.00155
	minimum = 5
	maximum = 6
Slowest packet = 4060097
Flit latency average = 5.00155
	minimum = 5
	maximum = 6
Slowest flit = 4060600
Fragmentation average = 0
	minimum = 0
	maximum = 0
Injected packet rate average = 0.0362912
	minimum = 0.0129179 (at node 1)
	maximum = 0.068769 (at node 24)
Accepted packet rate average = 0.0362912
	minimum = 0.0159574 (at node 17)
	maximum = 0.0569909 (at node 0)
Injected flit rate average = 0.0362912
	minimum = 0.0129179 (at node 1)
	maximum = 0.068769 (at node 24)
Accepted flit rate average= 0.0362912
	minimum = 0.0159574 (at node 17)
	maximum = 0.0569909 (at node 0)
Injected packet length average = 1
Accepted packet length average = 1
Total in-flight flits = 0 (0 measured)
====== Overall Traffic Statistics ======
====== Traffic class 0 ======
Packet latency average = 35.8398 (9 samples)
	minimum = 5 (9 samples)
	maximum = 267.222 (9 samples)
Network latency average = 33.0806 (9 samples)
	minimum = 5 (9 samples)
	maximum = 265.222 (9 samples)
Flit latency average = 33.0798 (9 samples)
	minimum = 5 (9 samples)
	maximum = 265.222 (9 samples)
Fragmentation average = 1.66792e-05 (9 samples)
	minimum = 0 (9 samples)
	maximum = 24.4444 (9 samples)
Injected packet rate average = 0.139643 (9 samples)
	minimum = 0.0559161 (9 samples)
	maximum = 0.286374 (9 samples)
Accepted packet rate average = 0.139643 (9 samples)
	minimum = 0.0729367 (9 samples)
	maximum = 0.21754 (9 samples)
Injected flit rate average = 0.139654 (9 samples)
	minimum = 0.0559281 (9 samples)
	maximum = 0.286374 (9 samples)
Accepted flit rate average = 0.139654 (9 samples)
	minimum = 0.0729507 (9 samples)
	maximum = 0.21754 (9 samples)
Injected packet size average = 1.00008 (9 samples)
Accepted packet size average = 1.00008 (9 samples)
Hops average = 1 (9 samples)
----------------------------END-of-Interconnect-DETAILS-------------------------


gpgpu_simulation_time = 0 days, 0 hrs, 4 min, 34 sec (274 sec)
gpgpu_simulation_rate = 67740 (inst/sec)
gpgpu_simulation_rate = 1814 (cycle/sec)
gpgpu_silicon_slowdown = 385887x
GPGPU-Sim: synchronize waiting for inactive GPU simulation
GPGPU-Sim API: Stream Manager State
GPGPU-Sim: detected inactive GPU simulation thread
Kernel Executed 9 times
Processing time: 273685.218750 (ms)
Result stored in result.txt
GPGPU-Sim: *** exit detected ***
