

        *** GPGPU-Sim Simulator Version 4.0.0  [build gpgpu-sim_git-commit-90ec3399763d7c8512cfe7dc193473086c38ca38_modified_0.0] ***


GPGPU-Sim PTX: simulation mode 0 (can change with PTX_SIM_MODE_FUNC environment variable:
               1=functional simulation only, 0=detailed performance simulator)
GPGPU-Sim PTX: overriding embedded ptx with ptx file (PTX_SIM_USE_PTX_FILE is set)
GPGPU-Sim: Configuration options:

-save_embedded_ptx                      0 # saves ptx files embedded in binary as <n>.ptx
-keep                                   0 # keep intermediate files created by GPGPU-Sim when interfacing with external programs
-gpgpu_ptx_save_converted_ptxplus                    0 # Saved converted ptxplus to a file
-gpgpu_occupancy_sm_number                   20 # The SM number to pass to ptxas when getting register usage for computing GPU occupancy. This parameter is required in the config.
-ptx_opcode_latency_int      4,13,4,5,145,32 # Opcode latencies for integers <ADD,MAX,MUL,MAD,DIV,SHFL>Default 1,1,19,25,145,32
-ptx_opcode_latency_fp          4,13,4,5,39 # Opcode latencies for single precision floating points <ADD,MAX,MUL,MAD,DIV>Default 1,1,1,1,30
-ptx_opcode_latency_dp         8,19,8,8,330 # Opcode latencies for double precision floating points <ADD,MAX,MUL,MAD,DIV>Default 8,8,8,8,335
-ptx_opcode_latency_sfu                    8 # Opcode latencies for SFU instructionsDefault 8
-ptx_opcode_latency_tesnor                   64 # Opcode latencies for Tensor instructionsDefault 64
-ptx_opcode_initiation_int          1,2,2,1,8,4 # Opcode initiation intervals for integers <ADD,MAX,MUL,MAD,DIV,SHFL>Default 1,1,4,4,32,4
-ptx_opcode_initiation_fp            1,2,1,1,4 # Opcode initiation intervals for single precision floating points <ADD,MAX,MUL,MAD,DIV>Default 1,1,1,1,5
-ptx_opcode_initiation_dp         8,16,8,8,130 # Opcode initiation intervals for double precision floating points <ADD,MAX,MUL,MAD,DIV>Default 8,8,8,8,130
-ptx_opcode_initiation_sfu                    8 # Opcode initiation intervals for sfu instructionsDefault 8
-ptx_opcode_initiation_tensor                   64 # Opcode initiation intervals for tensor instructionsDefault 64
-cdp_latency         7200,8000,100,12000,1600 # CDP API latency <cudaStreamCreateWithFlags, cudaGetParameterBufferV2_init_perWarp, cudaGetParameterBufferV2_perKernel, cudaLaunchDeviceV2_init_perWarp, cudaLaunchDevicV2_perKernel>Default 7200,8000,100,12000,1600
-network_mode                           1 # Interconnection network mode
-inter_config_file   config_fermi_islip.icnt # Interconnection network config file
-icnt_in_buffer_limit                   64 # in_buffer_limit
-icnt_out_buffer_limit                   64 # out_buffer_limit
-icnt_subnets                           2 # subnets
-icnt_arbiter_algo                      1 # arbiter_algo
-icnt_verbose                           0 # inct_verbose
-icnt_grant_cycles                      1 # grant_cycles
-gpgpu_ptx_use_cuobjdump                    1 # Use cuobjdump to extract ptx and sass from binaries
-gpgpu_experimental_lib_support                    0 # Try to extract code from cuda libraries [Broken because of unknown cudaGetExportTable]
-checkpoint_option                      0 #  checkpointing flag (0 = no checkpoint)
-checkpoint_kernel                      1 #  checkpointing during execution of which kernel (1- 1st kernel)
-checkpoint_CTA                         0 #  checkpointing after # of CTA (< less than total CTA)
-resume_option                          0 #  resume flag (0 = no resume)
-resume_kernel                          0 #  Resume from which kernel (1= 1st kernel)
-resume_CTA                             0 #  resume from which CTA 
-checkpoint_CTA_t                       0 #  resume from which CTA 
-checkpoint_insn_Y                      0 #  resume from which CTA 
-gpgpu_ptx_convert_to_ptxplus                    0 # Convert SASS (native ISA) to ptxplus and run ptxplus
-gpgpu_ptx_force_max_capability                   20 # Force maximum compute capability
-gpgpu_ptx_inst_debug_to_file                    0 # Dump executed instructions' debug information to file
-gpgpu_ptx_inst_debug_file       inst_debug.txt # Executed instructions' debug output file
-gpgpu_ptx_inst_debug_thread_uid                    1 # Thread UID for executed instructions' debug output
-gpgpu_simd_model                       1 # 1 = post-dominator
-gpgpu_shader_core_pipeline              1536:32 # shader core pipeline config, i.e., {<nthread>:<warpsize>}
-gpgpu_tex_cache:l1  N:4:128:24,L:R:m:N:L,T:128:4,128:2 # per-shader L1 texture cache  (READ-ONLY) config  {<nsets>:<bsize>:<assoc>,<rep>:<wr>:<alloc>:<wr_alloc>,<mshr>:<N>:<merge>,<mq>:<rf>}
-gpgpu_const_cache:l1 N:64:64:2,L:R:f:N:L,S:2:32,4 # per-shader L1 constant memory cache  (READ-ONLY) config  {<nsets>:<bsize>:<assoc>,<rep>:<wr>:<alloc>:<wr_alloc>,<mshr>:<N>:<merge>,<mq>} 
-gpgpu_cache:il1     N:4:128:4,L:R:f:N:L,S:2:32,4 # shader L1 instruction cache config  {<nsets>:<bsize>:<assoc>,<rep>:<wr>:<alloc>:<wr_alloc>,<mshr>:<N>:<merge>,<mq>} 
-gpgpu_cache:dl1     N:32:128:4,L:L:m:N:H,S:64:8,8 # per-shader L1 data cache config  {<nsets>:<bsize>:<assoc>,<rep>:<wr>:<alloc>:<wr_alloc>,<mshr>:<N>:<merge>,<mq> | none}
-gpgpu_l1_banks                         1 # The number of L1 cache banks
-gpgpu_l1_banks_byte_interleaving                   32 # l1 banks byte interleaving granularity
-gpgpu_l1_banks_hashing_function                    0 # l1 banks hashing function
-gpgpu_l1_latency                      35 # L1 Hit Latency
-gpgpu_smem_latency                    26 # smem Latency
-gpgpu_cache:dl1PrefL1                 none # per-shader L1 data cache config  {<nsets>:<bsize>:<assoc>,<rep>:<wr>:<alloc>:<wr_alloc>,<mshr>:<N>:<merge>,<mq> | none}
-gpgpu_cache:dl1PrefShared                 none # per-shader L1 data cache config  {<nsets>:<bsize>:<assoc>,<rep>:<wr>:<alloc>:<wr_alloc>,<mshr>:<N>:<merge>,<mq> | none}
-gpgpu_gmem_skip_L1D                    0 # global memory access skip L1D cache (implements -Xptxas -dlcm=cg, default=no skip)
-gpgpu_perfect_mem                      0 # enable perfect memory mode (no cache miss)
-n_regfile_gating_group                    4 # group of lanes that should be read/written together)
-gpgpu_clock_gated_reg_file                    0 # enable clock gated reg file for power calculations
-gpgpu_clock_gated_lanes                    0 # enable clock gated lanes for power calculations
-gpgpu_shader_registers                32768 # Number of registers per shader core. Limits number of concurrent CTAs. (default 8192)
-gpgpu_registers_per_block                 8192 # Maximum number of registers per CTA. (default 8192)
-gpgpu_ignore_resources_limitation                    0 # gpgpu_ignore_resources_limitation (default 0)
-gpgpu_shader_cta                       8 # Maximum number of concurrent CTAs in shader (default 8)
-gpgpu_num_cta_barriers                   16 # Maximum number of named barriers per CTA (default 16)
-gpgpu_n_clusters                      15 # number of processing clusters
-gpgpu_n_cores_per_cluster                    1 # number of simd cores per cluster
-gpgpu_n_cluster_ejection_buffer_size                   32 # number of packets in ejection buffer
-gpgpu_n_ldst_response_buffer_size                    2 # number of response packets in ld/st unit ejection buffer
-gpgpu_shmem_per_block                49152 # Size of shared memory per thread block or CTA (default 48kB)
-gpgpu_shmem_size                   49152 # Size of shared memory per shader core (default 16kB)
-gpgpu_adaptive_cache_config                    0 # adaptive_cache_config
-gpgpu_shmem_sizeDefault                49152 # Size of shared memory per shader core (default 16kB)
-gpgpu_shmem_size_PrefL1                16384 # Size of shared memory per shader core (default 16kB)
-gpgpu_shmem_size_PrefShared                16384 # Size of shared memory per shader core (default 16kB)
-gpgpu_shmem_num_banks                   32 # Number of banks in the shared memory in each shader core (default 16)
-gpgpu_shmem_limited_broadcast                    0 # Limit shared memory to do one broadcast per cycle (default on)
-gpgpu_shmem_warp_parts                    1 # Number of portions a warp is divided into for shared memory bank conflict check 
-gpgpu_mem_unit_ports                    1 # The number of memory transactions allowed per core cycle
-gpgpu_shmem_warp_parts                    1 # Number of portions a warp is divided into for shared memory bank conflict check 
-gpgpu_warpdistro_shader                   -1 # Specify which shader core to collect the warp size distribution from
-gpgpu_warp_issue_shader                    0 # Specify which shader core to collect the warp issue distribution from
-gpgpu_local_mem_map                    1 # Mapping from local memory space address to simulated GPU physical address space (default = enabled)
-gpgpu_num_reg_banks                   16 # Number of register banks (default = 8)
-gpgpu_reg_bank_use_warp_id                    0 # Use warp ID in mapping registers to banks (default = off)
-gpgpu_sub_core_model                    0 # Sub Core Volta/Pascal model (default = off)
-gpgpu_enable_specialized_operand_collector                    1 # enable_specialized_operand_collector
-gpgpu_operand_collector_num_units_sp                    6 # number of collector units (default = 4)
-gpgpu_operand_collector_num_units_dp                    0 # number of collector units (default = 0)
-gpgpu_operand_collector_num_units_sfu                    8 # number of collector units (default = 4)
-gpgpu_operand_collector_num_units_int                    0 # number of collector units (default = 0)
-gpgpu_operand_collector_num_units_tensor_core                    4 # number of collector units (default = 4)
-gpgpu_operand_collector_num_units_mem                    2 # number of collector units (default = 2)
-gpgpu_operand_collector_num_units_gen                    0 # number of collector units (default = 0)
-gpgpu_operand_collector_num_in_ports_sp                    2 # number of collector unit in ports (default = 1)
-gpgpu_operand_collector_num_in_ports_dp                    0 # number of collector unit in ports (default = 0)
-gpgpu_operand_collector_num_in_ports_sfu                    1 # number of collector unit in ports (default = 1)
-gpgpu_operand_collector_num_in_ports_int                    0 # number of collector unit in ports (default = 0)
-gpgpu_operand_collector_num_in_ports_tensor_core                    1 # number of collector unit in ports (default = 1)
-gpgpu_operand_collector_num_in_ports_mem                    1 # number of collector unit in ports (default = 1)
-gpgpu_operand_collector_num_in_ports_gen                    0 # number of collector unit in ports (default = 0)
-gpgpu_operand_collector_num_out_ports_sp                    2 # number of collector unit in ports (default = 1)
-gpgpu_operand_collector_num_out_ports_dp                    0 # number of collector unit in ports (default = 0)
-gpgpu_operand_collector_num_out_ports_sfu                    1 # number of collector unit in ports (default = 1)
-gpgpu_operand_collector_num_out_ports_int                    0 # number of collector unit in ports (default = 0)
-gpgpu_operand_collector_num_out_ports_tensor_core                    1 # number of collector unit in ports (default = 1)
-gpgpu_operand_collector_num_out_ports_mem                    1 # number of collector unit in ports (default = 1)
-gpgpu_operand_collector_num_out_ports_gen                    0 # number of collector unit in ports (default = 0)
-gpgpu_coalesce_arch                   20 # Coalescing arch (GT200 = 13, Fermi = 20)
-gpgpu_num_sched_per_core                    2 # Number of warp schedulers per core
-gpgpu_max_insn_issue_per_warp                    1 # Max number of instructions that can be issued per warp in one cycle by scheduler (either 1 or 2)
-gpgpu_dual_issue_diff_exec_units                    1 # should dual issue use two different execution unit resources (Default = 1)
-gpgpu_simt_core_sim_order                    1 # Select the simulation order of cores in a cluster (0=Fix, 1=Round-Robin)
-gpgpu_pipeline_widths 2,0,0,1,1,2,0,0,1,1,2 # Pipeline widths ID_OC_SP,ID_OC_DP,ID_OC_INT,ID_OC_SFU,ID_OC_MEM,OC_EX_SP,OC_EX_DP,OC_EX_INT,OC_EX_SFU,OC_EX_MEM,EX_WB,ID_OC_TENSOR_CORE,OC_EX_TENSOR_CORE
-gpgpu_tensor_core_avail                    0 # Tensor Core Available (default=0)
-gpgpu_num_sp_units                     2 # Number of SP units (default=1)
-gpgpu_num_dp_units                     0 # Number of DP units (default=0)
-gpgpu_num_int_units                    0 # Number of INT units (default=0)
-gpgpu_num_sfu_units                    1 # Number of SF units (default=1)
-gpgpu_num_tensor_core_units                    0 # Number of tensor_core units (default=1)
-gpgpu_num_mem_units                    1 # Number if ldst units (default=1) WARNING: not hooked up to anything
-gpgpu_scheduler                      gto # Scheduler configuration: < lrr | gto | two_level_active > If two_level_active:<num_active_warps>:<inner_prioritization>:<outer_prioritization>For complete list of prioritization values see shader.h enum scheduler_prioritization_typeDefault: gto
-gpgpu_concurrent_kernel_sm                    0 # Support concurrent kernels on a SM (default = disabled)
-gpgpu_perfect_inst_const_cache                    0 # perfect inst and const cache mode, so all inst and const hits in the cache(default = disabled)
-gpgpu_inst_fetch_throughput                    1 # the number of fetched intruction per warp each cycle
-gpgpu_reg_file_port_throughput                    1 # the number ports of the register file
-specialized_unit_1         0,4,4,4,4,BRA # specialized unit config {<enabled>,<num_units>:<latency>:<initiation>,<ID_OC_SPEC>:<OC_EX_SPEC>,<NAME>}
-specialized_unit_2         0,4,4,4,4,BRA # specialized unit config {<enabled>,<num_units>:<latency>:<initiation>,<ID_OC_SPEC>:<OC_EX_SPEC>,<NAME>}
-specialized_unit_3         0,4,4,4,4,BRA # specialized unit config {<enabled>,<num_units>:<latency>:<initiation>,<ID_OC_SPEC>:<OC_EX_SPEC>,<NAME>}
-specialized_unit_4         0,4,4,4,4,BRA # specialized unit config {<enabled>,<num_units>:<latency>:<initiation>,<ID_OC_SPEC>:<OC_EX_SPEC>,<NAME>}
-specialized_unit_5         0,4,4,4,4,BRA # specialized unit config {<enabled>,<num_units>:<latency>:<initiation>,<ID_OC_SPEC>:<OC_EX_SPEC>,<NAME>}
-specialized_unit_6         0,4,4,4,4,BRA # specialized unit config {<enabled>,<num_units>:<latency>:<initiation>,<ID_OC_SPEC>:<OC_EX_SPEC>,<NAME>}
-specialized_unit_7         0,4,4,4,4,BRA # specialized unit config {<enabled>,<num_units>:<latency>:<initiation>,<ID_OC_SPEC>:<OC_EX_SPEC>,<NAME>}
-specialized_unit_8         0,4,4,4,4,BRA # specialized unit config {<enabled>,<num_units>:<latency>:<initiation>,<ID_OC_SPEC>:<OC_EX_SPEC>,<NAME>}
-gpgpu_perf_sim_memcpy                    1 # Fill the L2 cache on memcpy
-gpgpu_simple_dram_model                    0 # simple_dram_model with fixed latency and BW
-gpgpu_dram_scheduler                    1 # 0 = fifo, 1 = FR-FCFS (defaul)
-gpgpu_dram_partition_queues          64:64:64:64 # i2$:$2d:d2$:$2i
-l2_ideal                               0 # Use a ideal L2 cache that always hit
-gpgpu_cache:dl2     S:64:128:8,L:B:m:L:L,A:256:4,4:0,32 # unified banked L2 data cache config  {<nsets>:<bsize>:<assoc>,<rep>:<wr>:<alloc>:<wr_alloc>,<mshr>:<N>:<merge>,<mq>}
-gpgpu_cache:dl2_texture_only                    0 # L2 cache used for texture only
-gpgpu_n_mem                            6 # number of memory modules (e.g. memory controllers) in gpu
-gpgpu_n_sub_partition_per_mchannel                    2 # number of memory subpartition in each memory module
-gpgpu_n_mem_per_ctrlr                    2 # number of memory chips per memory controller
-gpgpu_memlatency_stat                   14 # track and display latency statistics 0x2 enables MC, 0x4 enables queue logs
-gpgpu_frfcfs_dram_sched_queue_size                   64 # 0 = unlimited (default); # entries per chip
-gpgpu_dram_return_queue_size                  116 # 0 = unlimited (default); # entries per chip
-gpgpu_dram_buswidth                    4 # default = 4 bytes (8 bytes per cycle at DDR)
-gpgpu_dram_burst_length                    8 # Burst length of each DRAM request (default = 4 data bus cycle)
-dram_data_command_freq_ratio                    4 # Frequency ratio between DRAM data bus and command bus (default = 2 times, i.e. DDR)
-gpgpu_dram_timing_opt nbk=16:CCD=2:RRD=6:RCD=12:RAS=28:RP=12:RC=40: CL=12:WL=4:CDLR=5:WR=12:nbkgrp=4:CCDL=3:RTPL=2 # DRAM timing parameters = {nbk:tCCD:tRRD:tRCD:tRAS:tRP:tRC:CL:WL:tCDLR:tWR:nbkgrp:tCCDL:tRTPL}
-gpgpu_l2_rop_latency                  120 # ROP queue latency (default 85)
-dram_latency                         100 # DRAM latency (default 30)
-dram_dual_bus_interface                    0 # dual_bus_interface (default = 0) 
-dram_bnk_indexing_policy                    0 # dram_bnk_indexing_policy (0 = normal indexing, 1 = Xoring with the higher bits) (Default = 0)
-dram_bnkgrp_indexing_policy                    1 # dram_bnkgrp_indexing_policy (0 = take higher bits, 1 = take lower bits) (Default = 0)
-dram_seperate_write_queue_enable                    0 # Seperate_Write_Queue_Enable
-dram_write_queue_size             32:28:16 # Write_Queue_Size
-dram_elimnate_rw_turnaround                    0 # elimnate_rw_turnaround i.e set tWTR and tRTW = 0
-icnt_flit_size                        40 # icnt_flit_size
-gpgpu_mem_addr_mapping dramid@8;00000000.00000000.00000000.00000000.0000RRRR.RRRRRRRR.BBBCCCCB.CCSSSSSS # mapping memory address to dram model {dramid@<start bit>;<memory address map>}
-gpgpu_mem_addr_test                    0 # run sweep test to check address mapping for aliased address
-gpgpu_mem_address_mask                    1 # 0 = old addressing mask, 1 = new addressing mask, 2 = new add. mask + flipped bank sel and chip sel bits
-gpgpu_memory_partition_indexing                    0 # 0 = no indexing, 1 = bitwise xoring, 2 = IPoly, 3 = custom indexing
-gpuwattch_xml_file  gpuwattch_gtx480.xml # GPUWattch XML file
-power_simulation_enabled                    1 # Turn on power simulator (1=On, 0=Off)
-power_per_cycle_dump                    0 # Dump detailed power output each cycle
-power_trace_enabled                    0 # produce a file for the power trace (1=On, 0=Off)
-power_trace_zlevel                     6 # Compression level of the power trace output log (0=no comp, 9=highest)
-steady_power_levels_enabled                    0 # produce a file for the steady power levels (1=On, 0=Off)
-steady_state_definition                  8:4 # allowed deviation:number of samples
-gpgpu_max_cycle                        0 # terminates gpu simulation early (0 = no limit)
-gpgpu_max_insn                 100000000 # terminates gpu simulation early (0 = no limit)
-gpgpu_max_cta                          0 # terminates gpu simulation early (0 = no limit)
-gpgpu_max_completed_cta                    0 # terminates gpu simulation early (0 = no limit)
-gpgpu_runtime_stat                   500 # display runtime statistics such as dram utilization {<freq>:<flag>}
-liveness_message_freq                    1 # Minimum number of seconds between simulation liveness messages (0 = always print)
-gpgpu_compute_capability_major                    2 # Major compute capability version number
-gpgpu_compute_capability_minor                    0 # Minor compute capability version number
-gpgpu_flush_l1_cache                    1 # Flush L1 cache at the end of each kernel call
-gpgpu_flush_l2_cache                    0 # Flush L2 cache at the end of each kernel call
-gpgpu_deadlock_detect                    1 # Stop the simulation at deadlock (1=on (default), 0=off)
-gpgpu_ptx_instruction_classification                    0 # if enabled will classify ptx instruction types per kernel (Max 255 kernels now)
-gpgpu_ptx_sim_mode                     0 # Select between Performance (default) or Functional simulation (1)
-gpgpu_clock_domains 700.0:700.0:700.0:924.0 # Clock Domain Frequencies in MhZ {<Core Clock>:<ICNT Clock>:<L2 Clock>:<DRAM Clock>}
-gpgpu_max_concurrent_kernel                    8 # maximum kernels that can run concurrently on GPU
-gpgpu_cflog_interval                    0 # Interval between each snapshot in control flow logger
-visualizer_enabled                     0 # Turn on visualizer output (1=On, 0=Off)
-visualizer_outputfile                 NULL # Specifies the output log file for visualizer
-visualizer_zlevel                      6 # Compression level of the visualizer output log (0=no comp, 9=highest)
-gpgpu_stack_size_limit                 1024 # GPU thread stack size
-gpgpu_heap_size_limit              8388608 # GPU malloc heap size 
-gpgpu_runtime_sync_depth_limit                    2 # GPU device runtime synchronize depth
-gpgpu_runtime_pending_launch_count_limit                 2048 # GPU device runtime pending launch count
-trace_enabled                          0 # Turn on traces
-trace_components                    none # comma seperated list of traces to enable. Complete list found in trace_streams.tup. Default none
-trace_sampling_core                    0 # The core which is printed using CORE_DPRINTF. Default 0
-trace_sampling_memory_partition                   -1 # The memory partition which is printed using MEMPART_DPRINTF. Default -1 (i.e. all)
-enable_ptx_file_line_stats                    1 # Turn on PTX source line statistic profiling. (1 = On)
-ptx_line_stats_filename gpgpu_inst_stats.txt # Output file for PTX source line statistics.
-gpgpu_kernel_launch_latency                    0 # Kernel launch latency in cycles. Default: 0
-gpgpu_cdp_enabled                      0 # Turn on CDP
-gpgpu_TB_launch_latency                    0 # thread block launch latency in cycles. Default: 0
DRAM Timing Options:
nbk                                    16 # number of banks
CCD                                     2 # column to column delay
RRD                                     6 # minimal delay between activation of rows in different banks
RCD                                    12 # row to column delay
RAS                                    28 # time needed to activate row
RP                                     12 # time needed to precharge (deactivate) row
RC                                     40 # row cycle time
CDLR                                    5 # switching from write to read (changes tWTR)
WR                                     12 # last data-in to row precharge
CL                                     12 # CAS latency
WL                                      4 # Write latency
nbkgrp                                  4 # number of bank groups
CCDL                                    3 # column to column delay between accesses to different bank groups
RTPL                                    2 # read to precharge delay between accesses to different bank groups
Total number of memory sub partition = 12
addr_dec_mask[CHIP]  = 0000000000000000 	high:64 low:0
addr_dec_mask[BK]    = 000000000000e100 	high:16 low:8
addr_dec_mask[ROW]   = 000000000fff0000 	high:28 low:16
addr_dec_mask[COL]   = 0000000000001eff 	high:13 low:0
addr_dec_mask[BURST] = 000000000000003f 	high:6 low:0
sub_partition_id_mask = 0000000000000100
GPGPU-Sim uArch: clock freqs: 700000000.000000:700000000.000000:700000000.000000:924000000.000000
GPGPU-Sim uArch: clock periods: 0.00000000142857142857:0.00000000142857142857:0.00000000142857142857:0.00000000108225108225
*** Initializing Memory Statistics ***
GPGPU-Sim uArch: interconnect node map (shaderID+MemID to icntID)
GPGPU-Sim uArch: Memory nodes ID start from index: 15
GPGPU-Sim uArch:    0   1   2   3   4
GPGPU-Sim uArch:    5   6   7   8   9
GPGPU-Sim uArch:   10  11  12  13  14
GPGPU-Sim uArch:   15  16  17  18  19
GPGPU-Sim uArch:   20  21  22  23  24
GPGPU-Sim uArch:   25  26
GPGPU-Sim uArch: interconnect node reverse map (icntID to shaderID+MemID)
GPGPU-Sim uArch: Memory nodes start from ID: 15
GPGPU-Sim uArch:    0   1   2   3   4
GPGPU-Sim uArch:    5   6   7   8   9
GPGPU-Sim uArch:   10  11  12  13  14
GPGPU-Sim uArch:   15  16  17  18  19
GPGPU-Sim uArch:   20  21  22  23  24
GPGPU-Sim uArch:   25  26
332b2aecc87cc02a87d30f210e438b23  /code/ISPASS/LPS/ispass-2009-LPS
Extracting PTX file and ptxas options    1: ispass-2009-LPS.1.sm_30.ptx -arch=sm_30
Extracting PTX file and ptxas options    2: ispass-2009-LPS.2.sm_35.ptx -arch=sm_35
Extracting PTX file and ptxas options    3: ispass-2009-LPS.3.sm_50.ptx -arch=sm_50
Extracting PTX file and ptxas options    4: ispass-2009-LPS.4.sm_60.ptx -arch=sm_60
Extracting PTX file and ptxas options    5: ispass-2009-LPS.5.sm_62.ptx -arch=sm_62
GPGPU-Sim uArch: performance model initialization complete.
self exe links to: /code/ISPASS/LPS/ispass-2009-LPS
self exe links to: /code/ISPASS/LPS/ispass-2009-LPS
10.1
GPGPU-Sim PTX: __cudaRegisterFatBinary, fat_cubin_handle = 1, filename=default
self exe links to: /code/ISPASS/LPS/ispass-2009-LPS
Running md5sum using "md5sum /code/ISPASS/LPS/ispass-2009-LPS "
self exe links to: /code/ISPASS/LPS/ispass-2009-LPS
Extracting specific PTX file named ispass-2009-LPS.1.sm_30.ptx 
Extracting specific PTX file named ispass-2009-LPS.2.sm_35.ptx 
Extracting specific PTX file named ispass-2009-LPS.3.sm_50.ptx 
Extracting specific PTX file named ispass-2009-LPS.4.sm_60.ptx 
Extracting specific PTX file named ispass-2009-LPS.5.sm_62.ptx 
GPGPU-Sim PTX: __cudaRegisterFunction _Z13GPU_laplace3diiiiPfS_ : hostFun 0x0x4046d0, fat_cubin_handle = 1
GPGPU-Sim PTX: Parsing ispass-2009-LPS.1.sm_30.ptx
GPGPU-Sim PTX: allocating shared region for "_ZZ13GPU_laplace3diiiiPfS_E2u1" from 0x0 to 0x990 (shared memory space)
GPGPU-Sim PTX: instruction assembly for function '_Z13GPU_laplace3diiiiPfS_'...   done.
GPGPU-Sim PTX: finished parsing EMBEDDED .ptx file ispass-2009-LPS.1.sm_30.ptx
GPGPU-Sim PTX: Parsing ispass-2009-LPS.2.sm_35.ptx
GPGPU-Sim PTX: Warning %p0 was declared previous at ispass-2009-LPS.1.sm_30.ptx:25 skipping new declaration
GPGPU-Sim PTX: Warning %p1 was declared previous at ispass-2009-LPS.1.sm_30.ptx:25 skipping new declaration
GPGPU-Sim PTX: Warning %p2 was declared previous at ispass-2009-LPS.1.sm_30.ptx:25 skipping new declaration
GPGPU-Sim PTX: Warning %p3 was declared previous at ispass-2009-LPS.1.sm_30.ptx:25 skipping new declaration
GPGPU-Sim PTX: Warning %p4 was declared previous at ispass-2009-LPS.1.sm_30.ptx:25 skipping new declaration
GPGPU-Sim PTX: Warning %p5 was declared previous at ispass-2009-LPS.1.sm_30.ptx:25 skipping new declaration
GPGPU-Sim PTX: Warning %p6 was declared previous at ispass-2009-LPS.1.sm_30.ptx:25 skipping new declaration
GPGPU-Sim PTX: Warning %p7 was declared previous at ispass-2009-LPS.1.sm_30.ptx:25 skipping new declaration
GPGPU-Sim PTX: Warning %p8 was declared previous at ispass-2009-LPS.1.sm_30.ptx:25 skipping new declaration
GPGPU-Sim PTX: Warning %p9 was declared previous at ispass-2009-LPS.1.sm_30.ptx:25 skipping new declaration
GPGPU-Sim PTX: Warning %p10 was declared previous at ispass-2009-LPS.1.sm_30.ptx:25 skipping new declaration
GPGPU-Sim PTX: Warning %p11 was declared previous at ispass-2009-LPS.1.sm_30.ptx:25 skipping new declaration
GPGPU-Sim PTX: Warning %p12 was declared previous at ispass-2009-LPS.1.sm_30.ptx:25 skipping new declaration
GPGPU-Sim PTX: Warning %p13 was declared previous at ispass-2009-LPS.1.sm_30.ptx:25 skipping new declaration
GPGPU-Sim PTX: Warning %p14 was declared previous at ispass-2009-LPS.1.sm_30.ptx:25 skipping new declaration
GPGPU-Sim PTX: Warning %p15 was declared previous at ispass-2009-LPS.1.sm_30.ptx:25 skipping new declaration
GPGPU-Sim PTX: Warning %p16 was declared previous at ispass-2009-LPS.1.sm_30.ptx:25 skipping new declaration
GPGPU-Sim PTX: Warning %p17 was declared previous at ispass-2009-LPS.1.sm_30.ptx:25 skipping new declaration
GPGPU-Sim PTX: Warning %p18 was declared previous at ispass-2009-LPS.1.sm_30.ptx:25 skipping new declaration
GPGPU-Sim PTX: Warning %p19 was declared previous at ispass-2009-LPS.1.sm_30.ptx:25 skipping new declaration
GPGPU-Sim PTX: Warning %p20 was declared previous at ispass-2009-LPS.1.sm_30.ptx:25 skipping new declaration
GPGPU-Sim PTX: Warning %p21 was declared previous at ispass-2009-LPS.1.sm_30.ptx:25 skipping new declaration
GPGPU-Sim PTX: Warning %p22 was declared previous at ispass-2009-LPS.1.sm_30.ptx:25 skipping new declaration
GPGPU-Sim PTX: Warning %p23 was declared previous at ispass-2009-LPS.1.sm_30.ptx:25 skipping new declaration
GPGPU-Sim PTX: Warning %p24 was declared previous at ispass-2009-LPS.1.sm_30.ptx:25 skipping new declaration
GPGPU-Sim PTX: Warning %p25 was declared previous at ispass-2009-LPS.1.sm_30.ptx:25 skipping new declaration
GPGPU-Sim PTX: Warning %p26 was declared previous at ispass-2009-LPS.1.sm_30.ptx:25 skipping new declaration
GPGPU-Sim PTX: Warning %p27 was declared previous at ispass-2009-LPS.1.sm_30.ptx:25 skipping new declaration
GPGPU-Sim PTX: Warning %p28 was declared previous at ispass-2009-LPS.1.sm_30.ptx:25 skipping new declaration
GPGPU-Sim PTX: Warning %p29 was declared previous at ispass-2009-LPS.1.sm_30.ptx:25 skipping new declaration
GPGPU-Sim PTX: Warning %p30 was declared previous at ispass-2009-LPS.1.sm_30.ptx:25 skipping new declaration
GPGPU-Sim PTX: Warning %p31 was declared previous at ispass-2009-LPS.1.sm_30.ptx:25 skipping new declaration
GPGPU-Sim PTX: Warning %p32 was declared previous at ispass-2009-LPS.1.sm_30.ptx:25 skipping new declaration
GPGPU-Sim PTX: Warning %p33 was declared previous at ispass-2009-LPS.1.sm_30.ptx:25 skipping new declaration
GPGPU-Sim PTX: Warning %p34 was declared previous at ispass-2009-LPS.1.sm_30.ptx:25 skipping new declaration
GPGPU-Sim PTX: Warning %p35 was declared previous at ispass-2009-LPS.1.sm_30.ptx:25 skipping new declaration
GPGPU-Sim PTX: Warning %p36 was declared previous at ispass-2009-LPS.1.sm_30.ptx:25 skipping new declaration
GPGPU-Sim PTX: Warning %p37 was declared previous at ispass-2009-LPS.1.sm_30.ptx:25 skipping new declaration
GPGPU-Sim PTX: Warning %p38 was declared previous at ispass-2009-LPS.1.sm_30.ptx:25 skipping new declaration
GPGPU-Sim PTX: Warning %p39 was declared previous at ispass-2009-LPS.1.sm_30.ptx:25 skipping new declaration
GPGPU-Sim PTX: Warning %p40 was declared previous at ispass-2009-LPS.1.sm_30.ptx:25 skipping new declaration
GPGPU-Sim PTX: Warning %p41 was declared previous at ispass-2009-LPS.1.sm_30.ptx:25 skipping new declaration
GPGPU-Sim PTX: Warning %p42 was declared previous at ispass-2009-LPS.1.sm_30.ptx:25 skipping new declaration
GPGPU-Sim PTX: Warning %p43 was declared previous at ispass-2009-LPS.1.sm_30.ptx:25 skipping new declaration
GPGPU-Sim PTX: Warning %p44 was declared previous at ispass-2009-LPS.1.sm_30.ptx:25 skipping new declaration
GPGPU-Sim PTX: Warning %p45 was declared previous at ispass-2009-LPS.1.sm_30.ptx:25 skipping new declaration
GPGPU-Sim PTX: Warning %p46 was declared previous at ispass-2009-LPS.1.sm_30.ptx:25 skipping new declaration
GPGPU-Sim PTX: Warning %p47 was declared previous at ispass-2009-LPS.1.sm_30.ptx:25 skipping new declaration
GPGPU-Sim PTX: Warning %p48 was declared previous at ispass-2009-LPS.1.sm_30.ptx:25 skipping new declaration
GPGPU-Sim PTX: Warning %p49 was declared previous at ispass-2009-LPS.1.sm_30.ptx:25 skipping new declaration
GPGPU-Sim PTX: Warning %p50 was declared previous at ispass-2009-LPS.1.sm_30.ptx:25 skipping new declaration
GPGPU-Sim PTX: Warning %p51 was declared previous at ispass-2009-LPS.1.sm_30.ptx:25 skipping new declaration
GPGPU-Sim PTX: Warning %p52 was declared previous at ispass-2009-LPS.1.sm_30.ptx:25 skipping new declaration
GPGPU-Sim PTX: Warning %p53 was declared previous at ispass-2009-LPS.1.sm_30.ptx:25 skipping new declaration
GPGPU-Sim PTX: Warning %p54 was declared previous at ispass-2009-LPS.1.sm_30.ptx:25 skipping new declaration
GPGPU-Sim PTX: Warning %p55 was declared previous at ispass-2009-LPS.1.sm_30.ptx:25 skipping new declaration
GPGPU-Sim PTX: Warning %p56 was declared previous at ispass-2009-LPS.1.sm_30.ptx:25 skipping new declaration
GPGPU-Sim PTX: Warning %p57 was declared previous at ispass-2009-LPS.1.sm_30.ptx:25 skipping new declaration
GPGPU-Sim PTX: Warning %p58 was declared previous at ispass-2009-LPS.1.sm_30.ptx:25 skipping new declaration
GPGPU-Sim PTX: Warning %p59 was declared previous at ispass-2009-LPS.1.sm_30.ptx:25 skipping new declaration
GPGPU-Sim PTX: Warning %p60 was declared previous at ispass-2009-LPS.1.sm_30.ptx:25 skipping new declaration
GPGPU-Sim PTX: Warning %p61 was declared previous at ispass-2009-LPS.1.sm_30.ptx:25 skipping new declaration
GPGPU-Sim PTX: Warning %p62 was declared previous at ispass-2009-LPS.1.sm_30.ptx:25 skipping new declaration
GPGPU-Sim PTX: Warning %p63 was declared previous at ispass-2009-LPS.1.sm_30.ptx:25 skipping new declaration
GPGPU-Sim PTX: Warning %p64 was declared previous at ispass-2009-LPS.1.sm_30.ptx:25 skipping new declaration
GPGPU-Sim PTX: Warning %p65 was declared previous at ispass-2009-LPS.1.sm_30.ptx:25 skipping new declaration
GPGPU-Sim PTX: Warning %p66 was declared previous at ispass-2009-LPS.1.sm_30.ptx:25 skipping new declaration
GPGPU-Sim PTX: Warning %p67 was declared previous at ispass-2009-LPS.1.sm_30.ptx:25 skipping new declaration
GPGPU-Sim PTX: Warning %p68 was declared previous at ispass-2009-LPS.1.sm_30.ptx:25 skipping new declaration
GPGPU-Sim PTX: Warning %p69 was declared previous at ispass-2009-LPS.1.sm_30.ptx:25 skipping new declaration
GPGPU-Sim PTX: Warning %f0 was declared previous at ispass-2009-LPS.1.sm_30.ptx:26 skipping new declaration
GPGPU-Sim PTX: Warning %f1 was declared previous at ispass-2009-LPS.1.sm_30.ptx:26 skipping new declaration
GPGPU-Sim PTX: Warning %f2 was declared previous at ispass-2009-LPS.1.sm_30.ptx:26 skipping new declaration
GPGPU-Sim PTX: Warning %f3 was declared previous at ispass-2009-LPS.1.sm_30.ptx:26 skipping new declaration
GPGPU-Sim PTX: Warning %f4 was declared previous at ispass-2009-LPS.1.sm_30.ptx:26 skipping new declaration
GPGPU-Sim PTX: Warning %f5 was declared previous at ispass-2009-LPS.1.sm_30.ptx:26 skipping new declaration
GPGPU-Sim PTX: Warning %f6 was declared previous at ispass-2009-LPS.1.sm_30.ptx:26 skipping new declaration
GPGPU-Sim PTX: Warning %f7 was declared previous at ispass-2009-LPS.1.sm_30.ptx:26 skipping new declaration
GPGPU-Sim PTX: Warning %f8 was declared previous at ispass-2009-LPS.1.sm_30.ptx:26 skipping new declaration
GPGPU-Sim PTX: Warning %f9 was declared previous at ispass-2009-LPS.1.sm_30.ptx:26 skipping new declaration
GPGPU-Sim PTX: Warning %f10 was declared previous at ispass-2009-LPS.1.sm_30.ptx:26 skipping new declaration
GPGPU-Sim PTX: Warning %f11 was declared previous at ispass-2009-LPS.1.sm_30.ptx:26 skipping new declaration
GPGPU-Sim PTX: Warning %f12 was declared previous at ispass-2009-LPS.1.sm_30.ptx:26 skipping new declaration
GPGPU-Sim PTX: Warning %f13 was declared previous at ispass-2009-LPS.1.sm_30.ptx:26 skipping new declaration
GPGPU-Sim PTX: Warning %f14 was declared previous at ispass-2009-LPS.1.sm_30.ptx:26 skipping new declaration
GPGPU-Sim PTX: Warning %f15 was declared previous at ispass-2009-LPS.1.sm_30.ptx:26 skipping new declaration
GPGPU-Sim PTX: Warning %f16 was declared previous at ispass-2009-LPS.1.sm_30.ptx:26 skipping new declaration
GPGPU-Sim PTX: Warning %f17 was declared previous at ispass-2009-LPS.1.sm_30.ptx:26 skipping new declaration
GPGPU-Sim PTX: Warning %f18 was declared previous at ispass-2009-LPS.1.sm_30.ptx:26 skipping new declaration
GPGPU-Sim PTX: Warning %f19 was declared previous at ispass-2009-LPS.1.sm_30.ptx:26 skipping new declaration
GPGPU-Sim PTX: Warning %f20 was declared previous at ispass-2009-LPS.1.sm_30.ptx:26 skipping new declaration
GPGPU-Sim PTX: Warning %f21 was declared previous at ispass-2009-LPS.1.sm_30.ptx:26 skipping new declaration
GPGPU-Sim PTX: Warning %f22 was declared previous at ispass-2009-LPS.1.sm_30.ptx:26 skipping new declaration
GPGPU-Sim PTX: Warning %f23 was declared previous at ispass-2009-LPS.1.sm_30.ptx:26 skipping new declaration
GPGPU-Sim PTX: Warning %f24 was declared previous at ispass-2009-LPS.1.sm_30.ptx:26 skipping new declaration
GPGPU-Sim PTX: Warning %f25 was declared previous at ispass-2009-LPS.1.sm_30.ptx:26 skipping new declaration
GPGPU-Sim PTX: Warning %f26 was declared previous at ispass-2009-LPS.1.sm_30.ptx:26 skipping new declaration
GPGPU-Sim PTX: Warning %f27 was declared previous at ispass-2009-LPS.1.sm_30.ptx:26 skipping new declaration
GPGPU-Sim PTX: Warning %f28 was declared previous at ispass-2009-LPS.1.sm_30.ptx:26 skipping new declaration
GPGPU-Sim PTX: Warning %f29 was declared previous at ispass-2009-LPS.1.sm_30.ptx:26 skipping new declaration
GPGPU-Sim PTX: Warning %f30 was declared previous at ispass-2009-LPS.1.sm_30.ptx:26 skipping new declaration
GPGPU-Sim PTX: Warning %f31 was declared previous at ispass-2009-LPS.1.sm_30.ptx:26 skipping new declaration
GPGPU-Sim PTX: Warning %f32 was declared previous at ispass-2009-LPS.1.sm_30.ptx:26 skipping new declaration
GPGPU-Sim PTX: Warning %f33 was declared previous at ispass-2009-LPS.1.sm_30.ptx:26 skipping new declaration
GPGPU-Sim PTX: Warning %f34 was declared previous at ispass-2009-LPS.1.sm_30.ptx:26 skipping new declaration
GPGPU-Sim PTX: Warning %f35 was declared previous at ispass-2009-LPS.1.sm_30.ptx:26 skipping new declaration
GPGPU-Sim PTX: Warning %f36 was declared previous at ispass-2009-LPS.1.sm_30.ptx:26 skipping new declaration
GPGPU-Sim PTX: Warning %f37 was declared previous at ispass-2009-LPS.1.sm_30.ptx:26 skipping new declaration
GPGPU-Sim PTX: Warning %f38 was declared previous at ispass-2009-LPS.1.sm_30.ptx:26 skipping new declaration
GPGPU-Sim PTX: Warning %f39 was declared previous at ispass-2009-LPS.1.sm_30.ptx:26 skipping new declaration
GPGPU-Sim PTX: Warning %f40 was declared previous at ispass-2009-LPS.1.sm_30.ptx:26 skipping new declaration
GPGPU-Sim PTX: Warning %f41 was declared previous at ispass-2009-LPS.1.sm_30.ptx:26 skipping new declaration
GPGPU-Sim PTX: Warning %f42 was declared previous at ispass-2009-LPS.1.sm_30.ptx:26 skipping new declaration
GPGPU-Sim PTX: Warning %f43 was declared previous at ispass-2009-LPS.1.sm_30.ptx:26 skipping new declaration
GPGPU-Sim PTX: Warning %f44 was declared previous at ispass-2009-LPS.1.sm_30.ptx:26 skipping new declaration
GPGPU-Sim PTX: Warning %f45 was declared previous at ispass-2009-LPS.1.sm_30.ptx:26 skipping new declaration
GPGPU-Sim PTX: Warning %f46 was declared previous at ispass-2009-LPS.1.sm_30.ptx:26 skipping new declaration
GPGPU-Sim PTX: Warning %f47 was declared previous at ispass-2009-LPS.1.sm_30.ptx:26 skipping new declaration
GPGPU-Sim PTX: Warning %f48 was declared previous at ispass-2009-LPS.1.sm_30.ptx:26 skipping new declaration
GPGPU-Sim PTX: Warning %f49 was declared previous at ispass-2009-LPS.1.sm_30.ptx:26 skipping new declaration
GPGPU-Sim PTX: Warning %f50 was declared previous at ispass-2009-LPS.1.sm_30.ptx:26 skipping new declaration
GPGPU-Sim PTX: Warning %f51 was declared previous at ispass-2009-LPS.1.sm_30.ptx:26 skipping new declaration
GPGPU-Sim PTX: Warning %f52 was declared previous at ispass-2009-LPS.1.sm_30.ptx:26 skipping new declaration
GPGPU-Sim PTX: Warning %f53 was declared previous at ispass-2009-LPS.1.sm_30.ptx:26 skipping new declaration
GPGPU-Sim PTX: Warning %f54 was declared previous at ispass-2009-LPS.1.sm_30.ptx:26 skipping new declaration
GPGPU-Sim PTX: Warning %f55 was declared previous at ispass-2009-LPS.1.sm_30.ptx:26 skipping new declaration
GPGPU-Sim PTX: Warning %f56 was declared previous at ispass-2009-LPS.1.sm_30.ptx:26 skipping new declaration
GPGPU-Sim PTX: Warning %f57 was declared previous at ispass-2009-LPS.1.sm_30.ptx:26 skipping new declaration
GPGPU-Sim PTX: Warning %f58 was declared previous at ispass-2009-LPS.1.sm_30.ptx:26 skipping new declaration
GPGPU-Sim PTX: Warning %f59 was declared previous at ispass-2009-LPS.1.sm_30.ptx:26 skipping new declaration
GPGPU-Sim PTX: Warning %f60 was declared previous at ispass-2009-LPS.1.sm_30.ptx:26 skipping new declaration
GPGPU-Sim PTX: Warning %f61 was declared previous at ispass-2009-LPS.1.sm_30.ptx:26 skipping new declaration
GPGPU-Sim PTX: Warning %f62 was declared previous at ispass-2009-LPS.1.sm_30.ptx:26 skipping new declaration
GPGPU-Sim PTX: Warning %f63 was declared previous at ispass-2009-LPS.1.sm_30.ptx:26 skipping new declaration
GPGPU-Sim PTX: Warning %f64 was declared previous at ispass-2009-LPS.1.sm_30.ptx:26 skipping new declaration
GPGPU-Sim PTX: Warning %f65 was declared previous at ispass-2009-LPS.1.sm_30.ptx:26 skipping new declaration
GPGPU-Sim PTX: Warning %f66 was declared previous at ispass-2009-LPS.1.sm_30.ptx:26 skipping new declaration
GPGPU-Sim PTX: Warning %f67 was declared previous at ispass-2009-LPS.1.sm_30.ptx:26 skipping new declaration
GPGPU-Sim PTX: Warning %f68 was declared previous at ispass-2009-LPS.1.sm_30.ptx:26 skipping new declaration
GPGPU-Sim PTX: Warning %f69 was declared previous at ispass-2009-LPS.1.sm_30.ptx:26 skipping new declaration
GPGPU-Sim PTX: Warning %f70 was declared previous at ispass-2009-LPS.1.sm_30.ptx:26 skipping new declaration
GPGPU-Sim PTX: Warning %f71 was declared previous at ispass-2009-LPS.1.sm_30.ptx:26 skipping new declaration
GPGPU-Sim PTX: Warning %f72 was declared previous at ispass-2009-LPS.1.sm_30.ptx:26 skipping new declaration
GPGPU-Sim PTX: Warning %f73 was declared previous at ispass-2009-LPS.1.sm_30.ptx:26 skipping new declaration
GPGPU-Sim PTX: Warning %f74 was declared previous at ispass-2009-LPS.1.sm_30.ptx:26 skipping new declaration
GPGPU-Sim PTX: Warning %f75 was declared previous at ispass-2009-LPS.1.sm_30.ptx:26 skipping new declaration
GPGPU-Sim PTX: Warning %f76 was declared previous at ispass-2009-LPS.1.sm_30.ptx:26 skipping new declaration
GPGPU-Sim PTX: Warning %f77 was declared previous at ispass-2009-LPS.1.sm_30.ptx:26 skipping new declaration
GPGPU-Sim PTX: Warning %f78 was declared previous at ispass-2009-LPS.1.sm_30.ptx:26 skipping new declaration
GPGPU-Sim PTX: Warning %f79 was declared previous at ispass-2009-LPS.1.sm_30.ptx:26 skipping new declaration
GPGPU-Sim PTX: Warning %f80 was declared previous at ispass-2009-LPS.1.sm_30.ptx:26 skipping new declaration
GPGPU-Sim PTX: Warning %f81 was declared previous at ispass-2009-LPS.1.sm_30.ptx:26 skipping new declaration
GPGPU-Sim PTX: Warning %f82 was declared previous at ispass-2009-LPS.1.sm_30.ptx:26 skipping new declaration
GPGPU-Sim PTX: Warning %f83 was declared previous at ispass-2009-LPS.1.sm_30.ptx:26 skipping new declaration
GPGPU-Sim PTX: Warning %f84 was declared previous at ispass-2009-LPS.1.sm_30.ptx:26 skipping new declaration
GPGPU-Sim PTX: Warning %f85 was declared previous at ispass-2009-LPS.1.sm_30.ptx:26 skipping new declaration
GPGPU-Sim PTX: Warning %f86 was declared previous at ispass-2009-LPS.1.sm_30.ptx:26 skipping new declaration
GPGPU-Sim PTX: Warning %f87 was declared previous at ispass-2009-LPS.1.sm_30.ptx:26 skipping new declaration
GPGPU-Sim PTX: Warning %f88 was declared previous at ispass-2009-LPS.1.sm_30.ptx:26 skipping new declaration
GPGPU-Sim PTX: Warning %f89 was declared previous at ispass-2009-LPS.1.sm_30.ptx:26 skipping new declaration
GPGPU-Sim PTX: Warning %f90 was declared previous at ispass-2009-LPS.1.sm_30.ptx:26 skipping new declaration
GPGPU-Sim PTX: Warning %f91 was declared previous at ispass-2009-LPS.1.sm_30.ptx:26 skipping new declaration
GPGPU-Sim PTX: Warning %f92 was declared previous at ispass-2009-LPS.1.sm_30.ptx:26 skipping new declaration
GPGPU-Sim PTX: Warning %f93 was declared previous at ispass-2009-LPS.1.sm_30.ptx:26 skipping new declaration
GPGPU-Sim PTX: Warning %f94 was declared previous at ispass-2009-LPS.1.sm_30.ptx:26 skipping new declaration
GPGPU-Sim PTX: Warning %f95 was declared previous at ispass-2009-LPS.1.sm_30.ptx:26 skipping new declaration
GPGPU-Sim PTX: Warning %f96 was declared previous at ispass-2009-LPS.1.sm_30.ptx:26 skipping new declaration
GPGPU-Sim PTX: Warning %f97 was declared previous at ispass-2009-LPS.1.sm_30.ptx:26 skipping new declaration
GPGPU-Sim PTX: Warning %f98 was declared previous at ispass-2009-LPS.1.sm_30.ptx:26 skipping new declaration
GPGPU-Sim PTX: Warning %f99 was declared previous at ispass-2009-LPS.1.sm_30.ptx:26 skipping new declaration
GPGPU-Sim PTX: Warning %f100 was declared previous at ispass-2009-LPS.1.sm_30.ptx:26 skipping new declaration
GPGPU-Sim PTX: Warning %f101 was declared previous at ispass-2009-LPS.1.sm_30.ptx:26 skipping new declaration
GPGPU-Sim PTX: Warning %f102 was declared previous at ispass-2009-LPS.1.sm_30.ptx:26 skipping new declaration
GPGPU-Sim PTX: Warning %f103 was declared previous at ispass-2009-LPS.1.sm_30.ptx:26 skipping new declaration
GPGPU-Sim PTX: Warning %f104 was declared previous at ispass-2009-LPS.1.sm_30.ptx:26 skipping new declaration
GPGPU-Sim PTX: Warning %f105 was declared previous at ispass-2009-LPS.1.sm_30.ptx:26 skipping new declaration
GPGPU-Sim PTX: Warning %f106 was declared previous at ispass-2009-LPS.1.sm_30.ptx:26 skipping new declaration
GPGPU-Sim PTX: Warning %f107 was declared previous at ispass-2009-LPS.1.sm_30.ptx:26 skipping new declaration
GPGPU-Sim PTX: Warning %f108 was declared previous at ispass-2009-LPS.1.sm_30.ptx:26 skipping new declaration
GPGPU-Sim PTX: Warning %f109 was declared previous at ispass-2009-LPS.1.sm_30.ptx:26 skipping new declaration
GPGPU-Sim PTX: Warning %f110 was declared previous at ispass-2009-LPS.1.sm_30.ptx:26 skipping new declaration
GPGPU-Sim PTX: Warning %f111 was declared previous at ispass-2009-LPS.1.sm_30.ptx:26 skipping new declaration
GPGPU-Sim PTX: Warning %f112 was declared previous at ispass-2009-LPS.1.sm_30.ptx:26 skipping new declaration
GPGPU-Sim PTX: Warning %f113 was declared previous at ispass-2009-LPS.1.sm_30.ptx:26 skipping new declaration
GPGPU-Sim PTX: Warning %f114 was declared previous at ispass-2009-LPS.1.sm_30.ptx:26 skipping new declaration
GPGPU-Sim PTX: Warning %f115 was declared previous at ispass-2009-LPS.1.sm_30.ptx:26 skipping new declaration
GPGPU-Sim PTX: Warning %f116 was declared previous at ispass-2009-LPS.1.sm_30.ptx:26 skipping new declaration
GPGPU-Sim PTX: Warning %f117 was declared previous at ispass-2009-LPS.1.sm_30.ptx:26 skipping new declaration
GPGPU-Sim PTX: Warning %f118 was declared previous at ispass-2009-LPS.1.sm_30.ptx:26 skipping new declaration
GPGPU-Sim PTX: Warning %f119 was declared previous at ispass-2009-LPS.1.sm_30.ptx:26 skipping new declaration
GPGPU-Sim PTX: Warning %f120 was declared previous at ispass-2009-LPS.1.sm_30.ptx:26 skipping new declaration
GPGPU-Sim PTX: Warning %f121 was declared previous at ispass-2009-LPS.1.sm_30.ptx:26 skipping new declaration
GPGPU-Sim PTX: Warning %f122 was declared previous at ispass-2009-LPS.1.sm_30.ptx:26 skipping new declaration
GPGPU-Sim PTX: Warning %f123 was declared previous at ispass-2009-LPS.1.sm_30.ptx:26 skipping new declaration
GPGPU-Sim PTX: Warning %f124 was declared previous at ispass-2009-LPS.1.sm_30.ptx:26 skipping new declaration
GPGPU-Sim PTX: Warning %f125 was declared previous at ispass-2009-LPS.1.sm_30.ptx:26 skipping new declaration
GPGPU-Sim PTX: Warning %f126 was declared previous at ispass-2009-LPS.1.sm_30.ptx:26 skipping new declaration
GPGPU-Sim PTX: Warning %f127 was declared previous at ispass-2009-LPS.1.sm_30.ptx:26 skipping new declaration
GPGPU-Sim PTX: Warning %f128 was declared previous at ispass-2009-LPS.1.sm_30.ptx:26 skipping new declaration
GPGPU-Sim PTX: Warning %f129 was declared previous at ispass-2009-LPS.1.sm_30.ptx:26 skipping new declaration
GPGPU-Sim PTX: Warning %f130 was declared previous at ispass-2009-LPS.1.sm_30.ptx:26 skipping new declaration
GPGPU-Sim PTX: Warning %f131 was declared previous at ispass-2009-LPS.1.sm_30.ptx:26 skipping new declaration
GPGPU-Sim PTX: Warning %f132 was declared previous at ispass-2009-LPS.1.sm_30.ptx:26 skipping new declaration
GPGPU-Sim PTX: Warning %f133 was declared previous at ispass-2009-LPS.1.sm_30.ptx:26 skipping new declaration
GPGPU-Sim PTX: Warning %f134 was declared previous at ispass-2009-LPS.1.sm_30.ptx:26 skipping new declaration
GPGPU-Sim PTX: Warning %f135 was declared previous at ispass-2009-LPS.1.sm_30.ptx:26 skipping new declaration
GPGPU-Sim PTX: Warning %r0 was declared previous at ispass-2009-LPS.1.sm_30.ptx:27 skipping new declaration
GPGPU-Sim PTX: Warning %r1 was declared previous at ispass-2009-LPS.1.sm_30.ptx:27 skipping new declaration
GPGPU-Sim PTX: Warning %r2 was declared previous at ispass-2009-LPS.1.sm_30.ptx:27 skipping new declaration
GPGPU-Sim PTX: Warning %r3 was declared previous at ispass-2009-LPS.1.sm_30.ptx:27 skipping new declaration
GPGPU-Sim PTX: Warning %r4 was declared previous at ispass-2009-LPS.1.sm_30.ptx:27 skipping new declaration
GPGPU-Sim PTX: Warning %r5 was declared previous at ispass-2009-LPS.1.sm_30.ptx:27 skipping new declaration
GPGPU-Sim PTX: Warning %r6 was declared previous at ispass-2009-LPS.1.sm_30.ptx:27 skipping new declaration
GPGPU-Sim PTX: Warning %r7 was declared previous at ispass-2009-LPS.1.sm_30.ptx:27 skipping new declaration
GPGPU-Sim PTX: Warning %r8 was declared previous at ispass-2009-LPS.1.sm_30.ptx:27 skipping new declaration
GPGPU-Sim PTX: Warning %r9 was declared previous at ispass-2009-LPS.1.sm_30.ptx:27 skipping new declaration
GPGPU-Sim PTX: Warning %r10 was declared previous at ispass-2009-LPS.1.sm_30.ptx:27 skipping new declaration
GPGPU-Sim PTX: Warning %r11 was declared previous at ispass-2009-LPS.1.sm_30.ptx:27 skipping new declaration
GPGPU-Sim PTX: Warning %r12 was declared previous at ispass-2009-LPS.1.sm_30.ptx:27 skipping new declaration
GPGPU-Sim PTX: Warning %r13 was declared previous at ispass-2009-LPS.1.sm_30.ptx:27 skipping new declaration
GPGPU-Sim PTX: Warning %r14 was declared previous at ispass-2009-LPS.1.sm_30.ptx:27 skipping new declaration
GPGPU-Sim PTX: Warning %r15 was declared previous at ispass-2009-LPS.1.sm_30.ptx:27 skipping new declaration
GPGPU-Sim PTX: Warning %r16 was declared previous at ispass-2009-LPS.1.sm_30.ptx:27 skipping new declaration
GPGPU-Sim PTX: Warning %r17 was declared previous at ispass-2009-LPS.1.sm_30.ptx:27 skipping new declaration
GPGPU-Sim PTX: Warning %r18 was declared previous at ispass-2009-LPS.1.sm_30.ptx:27 skipping new declaration
GPGPU-Sim PTX: Warning %r19 was declared previous at ispass-2009-LPS.1.sm_30.ptx:27 skipping new declaration
GPGPU-Sim PTX: Warning %r20 was declared previous at ispass-2009-LPS.1.sm_30.ptx:27 skipping new declaration
GPGPU-Sim PTX: Warning %r21 was declared previous at ispass-2009-LPS.1.sm_30.ptx:27 skipping new declaration
GPGPU-Sim PTX: Warning %r22 was declared previous at ispass-2009-LPS.1.sm_30.ptx:27 skipping new declaration
GPGPU-Sim PTX: Warning %r23 was declared previous at ispass-2009-LPS.1.sm_30.ptx:27 skipping new declaration
GPGPU-Sim PTX: Warning %r24 was declared previous at ispass-2009-LPS.1.sm_30.ptx:27 skipping new declaration
GPGPU-Sim PTX: Warning %r25 was declared previous at ispass-2009-LPS.1.sm_30.ptx:27 skipping new declaration
GPGPU-Sim PTX: Warning %r26 was declared previous at ispass-2009-LPS.1.sm_30.ptx:27 skipping new declaration
GPGPU-Sim PTX: Warning %r27 was declared previous at ispass-2009-LPS.1.sm_30.ptx:27 skipping new declaration
GPGPU-Sim PTX: Warning %r28 was declared previous at ispass-2009-LPS.1.sm_30.ptx:27 skipping new declaration
GPGPU-Sim PTX: Warning %r29 was declared previous at ispass-2009-LPS.1.sm_30.ptx:27 skipping new declaration
GPGPU-Sim PTX: Warning %r30 was declared previous at ispass-2009-LPS.1.sm_30.ptx:27 skipping new declaration
GPGPU-Sim PTX: Warning %r31 was declared previous at ispass-2009-LPS.1.sm_30.ptx:27 skipping new declaration
GPGPU-Sim PTX: Warning %r32 was declared previous at ispass-2009-LPS.1.sm_30.ptx:27 skipping new declaration
GPGPU-Sim PTX: Warning %r33 was declared previous at ispass-2009-LPS.1.sm_30.ptx:27 skipping new declaration
GPGPU-Sim PTX: Warning %r34 was declared previous at ispass-2009-LPS.1.sm_30.ptx:27 skipping new declaration
GPGPU-Sim PTX: Warning %r35 was declared previous at ispass-2009-LPS.1.sm_30.ptx:27 skipping new declaration
GPGPU-Sim PTX: Warning %r36 was declared previous at ispass-2009-LPS.1.sm_30.ptx:27 skipping new declaration
GPGPU-Sim PTX: Warning %r37 was declared previous at ispass-2009-LPS.1.sm_30.ptx:27 skipping new declaration
GPGPU-Sim PTX: Warning %r38 was declared previous at ispass-2009-LPS.1.sm_30.ptx:27 skipping new declaration
GPGPU-Sim PTX: Warning %r39 was declared previous at ispass-2009-LPS.1.sm_30.ptx:27 skipping new declaration
GPGPU-Sim PTX: Warning %r40 was declared previous at ispass-2009-LPS.1.sm_30.ptx:27 skipping new declaration
GPGPU-Sim PTX: Warning %r41 was declared previous at ispass-2009-LPS.1.sm_30.ptx:27 skipping new declaration
GPGPU-Sim PTX: Warning %r42 was declared previous at ispass-2009-LPS.1.sm_30.ptx:27 skipping new declaration
GPGPU-Sim PTX: Warning %r43 was declared previous at ispass-2009-LPS.1.sm_30.ptx:27 skipping new declaration
GPGPU-Sim PTX: Warning %r44 was declared previous at ispass-2009-LPS.1.sm_30.ptx:27 skipping new declaration
GPGPU-Sim PTX: Warning %r45 was declared previous at ispass-2009-LPS.1.sm_30.ptx:27 skipping new declaration
GPGPU-Sim PTX: Warning %r46 was declared previous at ispass-2009-LPS.1.sm_30.ptx:27 skipping new declaration
GPGPU-Sim PTX: Warning %r47 was declared previous at ispass-2009-LPS.1.sm_30.ptx:27 skipping new declaration
GPGPU-Sim PTX: Warning %r48 was declared previous at ispass-2009-LPS.1.sm_30.ptx:27 skipping new declaration
GPGPU-Sim PTX: Warning %r49 was declared previous at ispass-2009-LPS.1.sm_30.ptx:27 skipping new declaration
GPGPU-Sim PTX: Warning %r50 was declared previous at ispass-2009-LPS.1.sm_30.ptx:27 skipping new declaration
GPGPU-Sim PTX: Warning %r51 was declared previous at ispass-2009-LPS.1.sm_30.ptx:27 skipping new declaration
GPGPU-Sim PTX: Warning %r52 was declared previous at ispass-2009-LPS.1.sm_30.ptx:27 skipping new declaration
GPGPU-Sim PTX: Warning %r53 was declared previous at ispass-2009-LPS.1.sm_30.ptx:27 skipping new declaration
GPGPU-Sim PTX: Warning %r54 was declared previous at ispass-2009-LPS.1.sm_30.ptx:27 skipping new declaration
GPGPU-Sim PTX: Warning %r55 was declared previous at ispass-2009-LPS.1.sm_30.ptx:27 skipping new declaration
GPGPU-Sim PTX: Warning %r56 was declared previous at ispass-2009-LPS.1.sm_30.ptx:27 skipping new declaration
GPGPU-Sim PTX: Warning %r57 was declared previous at ispass-2009-LPS.1.sm_30.ptx:27 skipping new declaration
GPGPU-Sim PTX: Warning %r58 was declared previous at ispass-2009-LPS.1.sm_30.ptx:27 skipping new declaration
GPGPU-Sim PTX: Warning %r59 was declared previous at ispass-2009-LPS.1.sm_30.ptx:27 skipping new declaration
GPGPU-Sim PTX: Warning %r60 was declared previous at ispass-2009-LPS.1.sm_30.ptx:27 skipping new declaration
GPGPU-Sim PTX: Warning %r61 was declared previous at ispass-2009-LPS.1.sm_30.ptx:27 skipping new declaration
GPGPU-Sim PTX: Warning %r62 was declared previous at ispass-2009-LPS.1.sm_30.ptx:27 skipping new declaration
GPGPU-Sim PTX: Warning %r63 was declared previous at ispass-2009-LPS.1.sm_30.ptx:27 skipping new declaration
GPGPU-Sim PTX: Warning %r64 was declared previous at ispass-2009-LPS.1.sm_30.ptx:27 skipping new declaration
GPGPU-Sim PTX: Warning %r65 was declared previous at ispass-2009-LPS.1.sm_30.ptx:27 skipping new declaration
GPGPU-Sim PTX: Warning %r66 was declared previous at ispass-2009-LPS.1.sm_30.ptx:27 skipping new declaration
GPGPU-Sim PTX: Warning %r67 was declared previous at ispass-2009-LPS.1.sm_30.ptx:27 skipping new declaration
GPGPU-Sim PTX: Warning %r68 was declared previous at ispass-2009-LPS.1.sm_30.ptx:27 skipping new declaration
GPGPU-Sim PTX: Warning %r69 was declared previous at ispass-2009-LPS.1.sm_30.ptx:27 skipping new declaration
GPGPU-Sim PTX: Warning %r70 was declared previous at ispass-2009-LPS.1.sm_30.ptx:27 skipping new declaration
GPGPU-Sim PTX: Warning %r71 was declared previous at ispass-2009-LPS.1.sm_30.ptx:27 skipping new declaration
GPGPU-Sim PTX: Warning %r72 was declared previous at ispass-2009-LPS.1.sm_30.ptx:27 skipping new declaration
GPGPU-Sim PTX: Warning %r73 was declared previous at ispass-2009-LPS.1.sm_30.ptx:27 skipping new declaration
GPGPU-Sim PTX: Warning %r74 was declared previous at ispass-2009-LPS.1.sm_30.ptx:27 skipping new declaration
GPGPU-Sim PTX: Warning %r75 was declared previous at ispass-2009-LPS.1.sm_30.ptx:27 skipping new declaration
GPGPU-Sim PTX: Warning %r76 was declared previous at ispass-2009-LPS.1.sm_30.ptx:27 skipping new declaration
GPGPU-Sim PTX: Warning %r77 was declared previous at ispass-2009-LPS.1.sm_30.ptx:27 skipping new declaration
GPGPU-Sim PTX: Warning %r78 was declared previous at ispass-2009-LPS.1.sm_30.ptx:27 skipping new declaration
GPGPU-Sim PTX: Warning %r79 was declared previous at ispass-2009-LPS.1.sm_30.ptx:27 skipping new declaration
GPGPU-Sim PTX: Warning %r80 was declared previous at ispass-2009-LPS.1.sm_30.ptx:27 skipping new declaration
GPGPU-Sim PTX: Warning %r81 was declared previous at ispass-2009-LPS.1.sm_30.ptx:27 skipping new declaration
GPGPU-Sim PTX: Warning %r82 was declared previous at ispass-2009-LPS.1.sm_30.ptx:27 skipping new declaration
GPGPU-Sim PTX: Warning %r83 was declared previous at ispass-2009-LPS.1.sm_30.ptx:27 skipping new declaration
GPGPU-Sim PTX: Warning %r84 was declared previous at ispass-2009-LPS.1.sm_30.ptx:27 skipping new declaration
GPGPU-Sim PTX: Warning %r85 was declared previous at ispass-2009-LPS.1.sm_30.ptx:27 skipping new declaration
GPGPU-Sim PTX: Warning %r86 was declared previous at ispass-2009-LPS.1.sm_30.ptx:27 skipping new declaration
GPGPU-Sim PTX: Warning %r87 was declared previous at ispass-2009-LPS.1.sm_30.ptx:27 skipping new declaration
GPGPU-Sim PTX: Warning %r88 was declared previous at ispass-2009-LPS.1.sm_30.ptx:27 skipping new declaration
GPGPU-Sim PTX: Warning %r89 was declared previous at ispass-2009-LPS.1.sm_30.ptx:27 skipping new declaration
GPGPU-Sim PTX: Warning %r90 was declared previous at ispass-2009-LPS.1.sm_30.ptx:27 skipping new declaration
GPGPU-Sim PTX: Warning %r91 was declared previous at ispass-2009-LPS.1.sm_30.ptx:27 skipping new declaration
GPGPU-Sim PTX: Warning %r92 was declared previous at ispass-2009-LPS.1.sm_30.ptx:27 skipping new declaration
GPGPU-Sim PTX: Warning %r93 was declared previous at ispass-2009-LPS.1.sm_30.ptx:27 skipping new declaration
GPGPU-Sim PTX: Warning %r94 was declared previous at ispass-2009-LPS.1.sm_30.ptx:27 skipping new declaration
GPGPU-Sim PTX: Warning %r95 was declared previous at ispass-2009-LPS.1.sm_30.ptx:27 skipping new declaration
GPGPU-Sim PTX: Warning %r96 was declared previous at ispass-2009-LPS.1.sm_30.ptx:27 skipping new declaration
GPGPU-Sim PTX: Warning %r97 was declared previous at ispass-2009-LPS.1.sm_30.ptx:27 skipping new declaration
GPGPU-Sim PTX: Warning %r98 was declared previous at ispass-2009-LPS.1.sm_30.ptx:27 skipping new declaration
GPGPU-Sim PTX: Warning %r99 was declared previous at ispass-2009-LPS.1.sm_30.ptx:27 skipping new declaration
GPGPU-Sim PTX: Warning %r100 was declared previous at ispass-2009-LPS.1.sm_30.ptx:27 skipping new declaration
GPGPU-Sim PTX: Warning %r101 was declared previous at ispass-2009-LPS.1.sm_30.ptx:27 skipping new declaration
GPGPU-Sim PTX: Warning %r102 was declared previous at ispass-2009-LPS.1.sm_30.ptx:27 skipping new declaration
GPGPU-Sim PTX: Warning %r103 was declared previous at ispass-2009-LPS.1.sm_30.ptx:27 skipping new declaration
GPGPU-Sim PTX: Warning %r104 was declared previous at ispass-2009-LPS.1.sm_30.ptx:27 skipping new declaration
GPGPU-Sim PTX: Warning %r105 was declared previous at ispass-2009-LPS.1.sm_30.ptx:27 skipping new declaration
GPGPU-Sim PTX: Warning %r106 was declared previous at ispass-2009-LPS.1.sm_30.ptx:27 skipping new declaration
GPGPU-Sim PTX: Warning %r107 was declared previous at ispass-2009-LPS.1.sm_30.ptx:27 skipping new declaration
GPGPU-Sim PTX: Warning %r108 was declared previous at ispass-2009-LPS.1.sm_30.ptx:27 skipping new declaration
GPGPU-Sim PTX: Warning %r109 was declared previous at ispass-2009-LPS.1.sm_30.ptx:27 skipping new declaration
GPGPU-Sim PTX: Warning %r110 was declared previous at ispass-2009-LPS.1.sm_30.ptx:27 skipping new declaration
GPGPU-Sim PTX: Warning %r111 was declared previous at ispass-2009-LPS.1.sm_30.ptx:27 skipping new declaration
GPGPU-Sim PTX: Warning %r112 was declared previous at ispass-2009-LPS.1.sm_30.ptx:27 skipping new declaration
GPGPU-Sim PTX: Warning %r113 was declared previous at ispass-2009-LPS.1.sm_30.ptx:27 skipping new declaration
GPGPU-Sim PTX: Warning %r114 was declared previous at ispass-2009-LPS.1.sm_30.ptx:27 skipping new declaration
GPGPU-Sim PTX: Warning %r115 was declared previous at ispass-2009-LPS.1.sm_30.ptx:27 skipping new declaration
GPGPU-Sim PTX: Warning %r116 was declared previous at ispass-2009-LPS.1.sm_30.ptx:27 skipping new declaration
GPGPU-Sim PTX: Warning %r117 was declared previous at ispass-2009-LPS.1.sm_30.ptx:27 skipping new declaration
GPGPU-Sim PTX: Warning %r118 was declared previous at ispass-2009-LPS.1.sm_30.ptx:27 skipping new declaration
GPGPU-Sim PTX: Warning %r119 was declared previous at ispass-2009-LPS.1.sm_30.ptx:27 skipping new declaration
GPGPU-Sim PTX: Warning %r120 was declared previous at ispass-2009-LPS.1.sm_30.ptx:27 skipping new declaration
GPGPU-Sim PTX: Warning %r121 was declared previous at ispass-2009-LPS.1.sm_30.ptx:27 skipping new declaration
GPGPU-Sim PTX: Warning %r122 was declared previous at ispass-2009-LPS.1.sm_30.ptx:27 skipping new declaration
GPGPU-Sim PTX: Warning %r123 was declared previous at ispass-2009-LPS.1.sm_30.ptx:27 skipping new declaration
GPGPU-Sim PTX: Warning %r124 was declared previous at ispass-2009-LPS.1.sm_30.ptx:27 skipping new declaration
GPGPU-Sim PTX: Warning %r125 was declared previous at ispass-2009-LPS.1.sm_30.ptx:27 skipping new declaration
GPGPU-Sim PTX: Warning %r126 was declared previous at ispass-2009-LPS.1.sm_30.ptx:27 skipping new declaration
GPGPU-Sim PTX: Warning %r127 was declared previous at ispass-2009-LPS.1.sm_30.ptx:27 skipping new declaration
GPGPU-Sim PTX: Warning %r128 was declared previous at ispass-2009-LPS.1.sm_30.ptx:27 skipping new declaration
GPGPU-Sim PTX: Warning %r129 was declared previous at ispass-2009-LPS.1.sm_30.ptx:27 skipping new declaration
GPGPU-Sim PTX: Warning %r130 was declared previous at ispass-2009-LPS.1.sm_30.ptx:27 skipping new declaration
GPGPU-Sim PTX: Warning %r131 was declared previous at ispass-2009-LPS.1.sm_30.ptx:27 skipping new declaration
GPGPU-Sim PTX: Warning %r132 was declared previous at ispass-2009-LPS.1.sm_30.ptx:27 skipping new declaration
GPGPU-Sim PTX: Warning %r133 was declared previous at ispass-2009-LPS.1.sm_30.ptx:27 skipping new declaration
GPGPU-Sim PTX: Warning %r134 was declared previous at ispass-2009-LPS.1.sm_30.ptx:27 skipping new declaration
GPGPU-Sim PTX: Warning %r135 was declared previous at ispass-2009-LPS.1.sm_30.ptx:27 skipping new declaration
GPGPU-Sim PTX: Warning %r136 was declared previous at ispass-2009-LPS.1.sm_30.ptx:27 skipping new declaration
GPGPU-Sim PTX: Warning %r137 was declared previous at ispass-2009-LPS.1.sm_30.ptx:27 skipping new declaration
GPGPU-Sim PTX: Warning %r138 was declared previous at ispass-2009-LPS.1.sm_30.ptx:27 skipping new declaration
GPGPU-Sim PTX: Warning %r139 was declared previous at ispass-2009-LPS.1.sm_30.ptx:27 skipping new declaration
GPGPU-Sim PTX: Warning %r140 was declared previous at ispass-2009-LPS.1.sm_30.ptx:27 skipping new declaration
GPGPU-Sim PTX: Warning %r141 was declared previous at ispass-2009-LPS.1.sm_30.ptx:27 skipping new declaration
GPGPU-Sim PTX: Warning %r142 was declared previous at ispass-2009-LPS.1.sm_30.ptx:27 skipping new declaration
GPGPU-Sim PTX: Warning %r143 was declared previous at ispass-2009-LPS.1.sm_30.ptx:27 skipping new declaration
GPGPU-Sim PTX: Warning %r144 was declared previous at ispass-2009-LPS.1.sm_30.ptx:27 skipping new declaration
GPGPU-Sim PTX: Warning %r145 was declared previous at ispass-2009-LPS.1.sm_30.ptx:27 skipping new declaration
GPGPU-Sim PTX: Warning %r146 was declared previous at ispass-2009-LPS.1.sm_30.ptx:27 skipping new declaration
GPGPU-Sim PTX: Warning %r147 was declared previous at ispass-2009-LPS.1.sm_30.ptx:27 skipping new declaration
GPGPU-Sim PTX: Warning %r148 was declared previous at ispass-2009-LPS.1.sm_30.ptx:27 skipping new declaration
GPGPU-Sim PTX: Warning %r149 was declared previous at ispass-2009-LPS.1.sm_30.ptx:27 skipping new declaration
GPGPU-Sim PTX: Warning %r150 was declared previous at ispass-2009-LPS.1.sm_30.ptx:27 skipping new declaration
GPGPU-Sim PTX: Warning %r151 was declared previous at ispass-2009-LPS.1.sm_30.ptx:27 skipping new declaration
GPGPU-Sim PTX: Warning %r152 was declared previous at ispass-2009-LPS.1.sm_30.ptx:27 skipping new declaration
GPGPU-Sim PTX: Warning %r153 was declared previous at ispass-2009-LPS.1.sm_30.ptx:27 skipping new declaration
GPGPU-Sim PTX: Warning %r154 was declared previous at ispass-2009-LPS.1.sm_30.ptx:27 skipping new declaration
GPGPU-Sim PTX: Warning %r155 was declared previous at ispass-2009-LPS.1.sm_30.ptx:27 skipping new declaration
GPGPU-Sim PTX: Warning %r156 was declared previous at ispass-2009-LPS.1.sm_30.ptx:27 skipping new declaration
GPGPU-Sim PTX: Warning %r157 was declared previous at ispass-2009-LPS.1.sm_30.ptx:27 skipping new declaration
GPGPU-Sim PTX: Warning %r158 was declared previous at ispass-2009-LPS.1.sm_30.ptx:27 skipping new declaration
GPGPU-Sim PTX: Warning %r159 was declared previous at ispass-2009-LPS.1.sm_30.ptx:27 skipping new declaration
GPGPU-Sim PTX: Warning %r160 was declared previous at ispass-2009-LPS.1.sm_30.ptx:27 skipping new declaration
GPGPU-Sim PTX: Warning %r161 was declared previous at ispass-2009-LPS.1.sm_30.ptx:27 skipping new declaration
GPGPU-Sim PTX: Warning %r162 was declared previous at ispass-2009-LPS.1.sm_30.ptx:27 skipping new declaration
GPGPU-Sim PTX: Warning %r163 was declared previous at ispass-2009-LPS.1.sm_30.ptx:27 skipping new declaration
GPGPU-Sim PTX: Warning %r164 was declared previous at ispass-2009-LPS.1.sm_30.ptx:27 skipping new declaration
GPGPU-Sim PTX: Warning %r165 was declared previous at ispass-2009-LPS.1.sm_30.ptx:27 skipping new declaration
GPGPU-Sim PTX: Warning %r166 was declared previous at ispass-2009-LPS.1.sm_30.ptx:27 skipping new declaration
GPGPU-Sim PTX: Warning %r167 was declared previous at ispass-2009-LPS.1.sm_30.ptx:27 skipping new declaration
GPGPU-Sim PTX: Warning %r168 was declared previous at ispass-2009-LPS.1.sm_30.ptx:27 skipping new declaration
GPGPU-Sim PTX: Warning %r169 was declared previous at ispass-2009-LPS.1.sm_30.ptx:27 skipping new declaration
GPGPU-Sim PTX: Warning %r170 was declared previous at ispass-2009-LPS.1.sm_30.ptx:27 skipping new declaration
GPGPU-Sim PTX: Warning %r171 was declared previous at ispass-2009-LPS.1.sm_30.ptx:27 skipping new declaration
GPGPU-Sim PTX: Warning %r172 was declared previous at ispass-2009-LPS.1.sm_30.ptx:27 skipping new declaration
GPGPU-Sim PTX: Warning %r173 was declared previous at ispass-2009-LPS.1.sm_30.ptx:27 skipping new declaration
GPGPU-Sim PTX: Warning %r174 was declared previous at ispass-2009-LPS.1.sm_30.ptx:27 skipping new declaration
GPGPU-Sim PTX: Warning %r175 was declared previous at ispass-2009-LPS.1.sm_30.ptx:27 skipping new declaration
GPGPU-Sim PTX: Warning %r176 was declared previous at ispass-2009-LPS.1.sm_30.ptx:27 skipping new declaration
GPGPU-Sim PTX: Warning %r177 was declared previous at ispass-2009-LPS.1.sm_30.ptx:27 skipping new declaration
GPGPU-Sim PTX: Warning %r178 was declared previous at ispass-2009-LPS.1.sm_30.ptx:27 skipping new declaration
GPGPU-Sim PTX: Warning %r179 was declared previous at ispass-2009-LPS.1.sm_30.ptx:27 skipping new declaration
GPGPU-Sim PTX: Warning %r180 was declared previous at ispass-2009-LPS.1.sm_30.ptx:27 skipping new declaration
GPGPU-Sim PTX: Warning %r181 was declared previous at ispass-2009-LPS.1.sm_30.ptx:27 skipping new declaration
GPGPU-Sim PTX: Warning %r182 was declared previous at ispass-2009-LPS.1.sm_30.ptx:27 skipping new declaration
GPGPU-Sim PTX: Warning %r183 was declared previous at ispass-2009-LPS.1.sm_30.ptx:27 skipping new declaration
GPGPU-Sim PTX: Warning %r184 was declared previous at ispass-2009-LPS.1.sm_30.ptx:27 skipping new declaration
GPGPU-Sim PTX: Warning %r185 was declared previous at ispass-2009-LPS.1.sm_30.ptx:27 skipping new declaration
GPGPU-Sim PTX: Warning %r186 was declared previous at ispass-2009-LPS.1.sm_30.ptx:27 skipping new declaration
GPGPU-Sim PTX: Warning %r187 was declared previous at ispass-2009-LPS.1.sm_30.ptx:27 skipping new declaration
GPGPU-Sim PTX: Warning %r188 was declared previous at ispass-2009-LPS.1.sm_30.ptx:27 skipping new declaration
GPGPU-Sim PTX: Warning %r189 was declared previous at ispass-2009-LPS.1.sm_30.ptx:27 skipping new declaration
GPGPU-Sim PTX: Warning %r190 was declared previous at ispass-2009-LPS.1.sm_30.ptx:27 skipping new declaration
GPGPU-Sim PTX: Warning %r191 was declared previous at ispass-2009-LPS.1.sm_30.ptx:27 skipping new declaration
GPGPU-Sim PTX: Warning %r192 was declared previous at ispass-2009-LPS.1.sm_30.ptx:27 skipping new declaration
GPGPU-Sim PTX: Warning %r193 was declared previous at ispass-2009-LPS.1.sm_30.ptx:27 skipping new declaration
GPGPU-Sim PTX: Warning %r194 was declared previous at ispass-2009-LPS.1.sm_30.ptx:27 skipping new declaration
GPGPU-Sim PTX: Warning %r195 was declared previous at ispass-2009-LPS.1.sm_30.ptx:27 skipping new declaration
GPGPU-Sim PTX: Warning %r196 was declared previous at ispass-2009-LPS.1.sm_30.ptx:27 skipping new declaration
GPGPU-Sim PTX: Warning %r197 was declared previous at ispass-2009-LPS.1.sm_30.ptx:27 skipping new declaration
GPGPU-Sim PTX: Warning %r198 was declared previous at ispass-2009-LPS.1.sm_30.ptx:27 skipping new declaration
GPGPU-Sim PTX: Warning %r199 was declared previous at ispass-2009-LPS.1.sm_30.ptx:27 skipping new declaration
GPGPU-Sim PTX: Warning %r200 was declared previous at ispass-2009-LPS.1.sm_30.ptx:27 skipping new declaration
GPGPU-Sim PTX: Warning %r201 was declared previous at ispass-2009-LPS.1.sm_30.ptx:27 skipping new declaration
GPGPU-Sim PTX: Warning %r202 was declared previous at ispass-2009-LPS.1.sm_30.ptx:27 skipping new declaration
GPGPU-Sim PTX: Warning %r203 was declared previous at ispass-2009-LPS.1.sm_30.ptx:27 skipping new declaration
GPGPU-Sim PTX: Warning %r204 was declared previous at ispass-2009-LPS.1.sm_30.ptx:27 skipping new declaration
GPGPU-Sim PTX: Warning %r205 was declared previous at ispass-2009-LPS.1.sm_30.ptx:27 skipping new declaration
GPGPU-Sim PTX: Warning %r206 was declared previous at ispass-2009-LPS.1.sm_30.ptx:27 skipping new declaration
GPGPU-Sim PTX: Warning %r207 was declared previous at ispass-2009-LPS.1.sm_30.ptx:27 skipping new declaration
GPGPU-Sim PTX: Warning %r208 was declared previous at ispass-2009-LPS.1.sm_30.ptx:27 skipping new declaration
GPGPU-Sim PTX: Warning %r209 was declared previous at ispass-2009-LPS.1.sm_30.ptx:27 skipping new declaration
GPGPU-Sim PTX: Warning %r210 was declared previous at ispass-2009-LPS.1.sm_30.ptx:27 skipping new declaration
GPGPU-Sim PTX: Warning %r211 was declared previous at ispass-2009-LPS.1.sm_30.ptx:27 skipping new declaration
GPGPU-Sim PTX: Warning %r212 was declared previous at ispass-2009-LPS.1.sm_30.ptx:27 skipping new declaration
GPGPU-Sim PTX: Warning %r213 was declared previous at ispass-2009-LPS.1.sm_30.ptx:27 skipping new declaration
GPGPU-Sim PTX: Warning %r214 was declared previous at ispass-2009-LPS.1.sm_30.ptx:27 skipping new declaration
GPGPU-Sim PTX: Warning %r215 was declared previous at ispass-2009-LPS.1.sm_30.ptx:27 skipping new declaration
GPGPU-Sim PTX: Warning %r216 was declared previous at ispass-2009-LPS.1.sm_30.ptx:27 skipping new declaration
GPGPU-Sim PTX: Warning %r217 was declared previous at ispass-2009-LPS.1.sm_30.ptx:27 skipping new declaration
GPGPU-Sim PTX: Warning %r218 was declared previous at ispass-2009-LPS.1.sm_30.ptx:27 skipping new declaration
GPGPU-Sim PTX: Warning %r219 was declared previous at ispass-2009-LPS.1.sm_30.ptx:27 skipping new declaration
GPGPU-Sim PTX: Warning %r220 was declared previous at ispass-2009-LPS.1.sm_30.ptx:27 skipping new declaration
GPGPU-Sim PTX: Warning %r221 was declared previous at ispass-2009-LPS.1.sm_30.ptx:27 skipping new declaration
GPGPU-Sim PTX: Warning %r222 was declared previous at ispass-2009-LPS.1.sm_30.ptx:27 skipping new declaration
GPGPU-Sim PTX: Warning %r223 was declared previous at ispass-2009-LPS.1.sm_30.ptx:27 skipping new declaration
GPGPU-Sim PTX: Warning %r224 was declared previous at ispass-2009-LPS.1.sm_30.ptx:27 skipping new declaration
GPGPU-Sim PTX: Warning %r225 was declared previous at ispass-2009-LPS.1.sm_30.ptx:27 skipping new declaration
GPGPU-Sim PTX: Warning %r226 was declared previous at ispass-2009-LPS.1.sm_30.ptx:27 skipping new declaration
GPGPU-Sim PTX: Warning %r227 was declared previous at ispass-2009-LPS.1.sm_30.ptx:27 skipping new declaration
GPGPU-Sim PTX: Warning %r228 was declared previous at ispass-2009-LPS.1.sm_30.ptx:27 skipping new declaration
GPGPU-Sim PTX: Warning %r229 was declared previous at ispass-2009-LPS.1.sm_30.ptx:27 skipping new declaration
GPGPU-Sim PTX: Warning %r230 was declared previous at ispass-2009-LPS.1.sm_30.ptx:27 skipping new declaration
GPGPU-Sim PTX: Warning %r231 was declared previous at ispass-2009-LPS.1.sm_30.ptx:27 skipping new declaration
GPGPU-Sim PTX: Warning %r232 was declared previous at ispass-2009-LPS.1.sm_30.ptx:27 skipping new declaration
GPGPU-Sim PTX: Warning %r233 was declared previous at ispass-2009-LPS.1.sm_30.ptx:27 skipping new declaration
GPGPU-Sim PTX: Warning %r234 was declared previous at ispass-2009-LPS.1.sm_30.ptx:27 skipping new declaration
GPGPU-Sim PTX: Warning %r235 was declared previous at ispass-2009-LPS.1.sm_30.ptx:27 skipping new declaration
GPGPU-Sim PTX: Warning %r236 was declared previous at ispass-2009-LPS.1.sm_30.ptx:27 skipping new declaration
GPGPU-Sim PTX: Warning %r237 was declared previous at ispass-2009-LPS.1.sm_30.ptx:27 skipping new declaration
GPGPU-Sim PTX: Warning %r238 was declared previous at ispass-2009-LPS.1.sm_30.ptx:27 skipping new declaration
GPGPU-Sim PTX: Warning %r239 was declared previous at ispass-2009-LPS.1.sm_30.ptx:27 skipping new declaration
GPGPU-Sim PTX: Warning %r240 was declared previous at ispass-2009-LPS.1.sm_30.ptx:27 skipping new declaration
GPGPU-Sim PTX: Warning %r241 was declared previous at ispass-2009-LPS.1.sm_30.ptx:27 skipping new declaration
GPGPU-Sim PTX: Warning %r242 was declared previous at ispass-2009-LPS.1.sm_30.ptx:27 skipping new declaration
GPGPU-Sim PTX: Warning %r243 was declared previous at ispass-2009-LPS.1.sm_30.ptx:27 skipping new declaration
GPGPU-Sim PTX: Warning %r244 was declared previous at ispass-2009-LPS.1.sm_30.ptx:27 skipping new declaration
GPGPU-Sim PTX: Warning %r245 was declared previous at ispass-2009-LPS.1.sm_30.ptx:27 skipping new declaration
GPGPU-Sim PTX: Warning %r246 was declared previous at ispass-2009-LPS.1.sm_30.ptx:27 skipping new declaration
GPGPU-Sim PTX: Warning %r247 was declared previous at ispass-2009-LPS.1.sm_30.ptx:27 skipping new declaration
GPGPU-Sim PTX: Warning %r248 was declared previous at ispass-2009-LPS.1.sm_30.ptx:27 skipping new declaration
GPGPU-Sim PTX: Warning %r249 was declared previous at ispass-2009-LPS.1.sm_30.ptx:27 skipping new declaration
GPGPU-Sim PTX: Warning %r250 was declared previous at ispass-2009-LPS.1.sm_30.ptx:27 skipping new declaration
GPGPU-Sim PTX: Warning %r251 was declared previous at ispass-2009-LPS.1.sm_30.ptx:27 skipping new declaration
GPGPU-Sim PTX: Warning %r252 was declared previous at ispass-2009-LPS.1.sm_30.ptx:27 skipping new declaration
GPGPU-Sim PTX: Warning %rd0 was declared previous at ispass-2009-LPS.1.sm_30.ptx:28 skipping new declaration
GPGPU-Sim PTX: Warning %rd1 was declared previous at ispass-2009-LPS.1.sm_30.ptx:28 skipping new declaration
GPGPU-Sim PTX: Warning %rd2 was declared previous at ispass-2009-LPS.1.sm_30.ptx:28 skipping new declaration
GPGPU-Sim PTX: Warning %rd3 was declared previous at ispass-2009-LPS.1.sm_30.ptx:28 skipping new declaration
GPGPU-Sim PTX: Warning %rd4 was declared previous at ispass-2009-LPS.1.sm_30.ptx:28 skipping new declaration
GPGPU-Sim PTX: Warning %rd5 was declared previous at ispass-2009-LPS.1.sm_30.ptx:28 skipping new declaration
GPGPU-Sim PTX: Warning %rd6 was declared previous at ispass-2009-LPS.1.sm_30.ptx:28 skipping new declaration
GPGPU-Sim PTX: Warning %rd7 was declared previous at ispass-2009-LPS.1.sm_30.ptx:28 skipping new declaration
GPGPU-Sim PTX: Warning %rd8 was declared previous at ispass-2009-LPS.1.sm_30.ptx:28 skipping new declaration
GPGPU-Sim PTX: Warning %rd9 was declared previous at ispass-2009-LPS.1.sm_30.ptx:28 skipping new declaration
GPGPU-Sim PTX: Warning %rd10 was declared previous at ispass-2009-LPS.1.sm_30.ptx:28 skipping new declaration
GPGPU-Sim PTX: Warning %rd11 was declared previous at ispass-2009-LPS.1.sm_30.ptx:28 skipping new declaration
GPGPU-Sim PTX: Warning %rd12 was declared previous at ispass-2009-LPS.1.sm_30.ptx:28 skipping new declaration
GPGPU-Sim PTX: Warning %rd13 was declared previous at ispass-2009-LPS.1.sm_30.ptx:28 skipping new declaration
GPGPU-Sim PTX: Warning %rd14 was declared previous at ispass-2009-LPS.1.sm_30.ptx:28 skipping new declaration
GPGPU-Sim PTX: Warning %rd15 was declared previous at ispass-2009-LPS.1.sm_30.ptx:28 skipping new declaration
GPGPU-Sim PTX: Warning %rd16 was declared previous at ispass-2009-LPS.1.sm_30.ptx:28 skipping new declaration
GPGPU-Sim PTX: Warning %rd17 was declared previous at ispass-2009-LPS.1.sm_30.ptx:28 skipping new declaration
GPGPU-Sim PTX: Warning %rd18 was declared previous at ispass-2009-LPS.1.sm_30.ptx:28 skipping new declaration
GPGPU-Sim PTX: Warning %rd19 was declared previous at ispass-2009-LPS.1.sm_30.ptx:28 skipping new declaration
GPGPU-Sim PTX: Warning %rd20 was declared previous at ispass-2009-LPS.1.sm_30.ptx:28 skipping new declaration
GPGPU-Sim PTX: Warning %rd21 was declared previous at ispass-2009-LPS.1.sm_30.ptx:28 skipping new declaration
GPGPU-Sim PTX: Warning %rd22 was declared previous at ispass-2009-LPS.1.sm_30.ptx:28 skipping new declaration
GPGPU-Sim PTX: Warning %rd23 was declared previous at ispass-2009-LPS.1.sm_30.ptx:28 skipping new declaration
GPGPU-Sim PTX: Warning %rd24 was declared previous at ispass-2009-LPS.1.sm_30.ptx:28 skipping new declaration
GPGPU-Sim PTX: Warning %rd25 was declared previous at ispass-2009-LPS.1.sm_30.ptx:28 skipping new declaration
GPGPU-Sim PTX: Warning %rd26 was declared previous at ispass-2009-LPS.1.sm_30.ptx:28 skipping new declaration
GPGPU-Sim PTX: Warning %rd27 was declared previous at ispass-2009-LPS.1.sm_30.ptx:28 skipping new declaration
GPGPU-Sim PTX: Warning %rd28 was declared previous at ispass-2009-LPS.1.sm_30.ptx:28 skipping new declaration
GPGPU-Sim PTX: Warning %rd29 was declared previous at ispass-2009-LPS.1.sm_30.ptx:28 skipping new declaration
GPGPU-Sim PTX: Warning %rd30 was declared previous at ispass-2009-LPS.1.sm_30.ptx:28 skipping new declaration
GPGPU-Sim PTX: Warning %rd31 was declared previous at ispass-2009-LPS.1.sm_30.ptx:28 skipping new declaration
GPGPU-Sim PTX: Warning %rd32 was declared previous at ispass-2009-LPS.1.sm_30.ptx:28 skipping new declaration
GPGPU-Sim PTX: Warning %rd33 was declared previous at ispass-2009-LPS.1.sm_30.ptx:28 skipping new declaration
[...]
n_activity=140969 dram_eff=0.4285
bk0: 1418a 187857i bk1: 1416a 188298i bk2: 1336a 188528i bk3: 1328a 187887i bk4: 1280a 188451i bk5: 1280a 187960i bk6: 1280a 189107i bk7: 1280a 188555i bk8: 1280a 188290i bk9: 1280a 188072i bk10: 1280a 188790i bk11: 1280a 189023i bk12: 1280a 188666i bk13: 1280a 188281i bk14: 1280a 188645i bk15: 1280a 188723i 

------------------------------------------------------------------------

Row_Buffer_Locality = 0.860433
Row_Buffer_Locality_read = 0.914757
Row_Buffer_Locality_write = 0.617855
Bank_Level_Parallism = 1.781046
Bank_Level_Parallism_Col = 0.000000
Bank_Level_Parallism_Ready = 1.106589
write_to_read_ratio_blp_rw_average = 0.000000
GrpLevelPara = 0.000000 

BW Util details:
bwutil = 0.300725 
total_CMD = 200848 
util_bw = 60400 
Wasted_Col = 42021 
Wasted_Row = 22679 
Idle = 75748 

BW Util Bottlenecks: 
RCDc_limit = 15795 
RCDWRc_limit = 7988 
WTRc_limit = 4427 
RTWc_limit = 14744 
CCDLc_limit = 16108 
rwq = 0 
CCDLc_limit_alone = 15754 
WTRc_limit_alone = 4410 
RTWc_limit_alone = 14407 

Commands details: 
total_CMD = 200848 
n_nop = 163582 
Read = 20858 
Write = 0 
L2_Alloc = 0 
L2_WB = 9342 
n_act = 3579 
n_pre = 3563 
n_ref = 34907600 
n_req = 25529 
total_req = 30200 

Dual Bus Interface Util: 
issued_total_row = 7142 
issued_total_col = 30200 
Row_Bus_Util =  0.035559 
CoL_Bus_Util = 0.150362 
Either_Row_CoL_Bus_Util = 0.185543 
Issued_on_Two_Bus_Simul_Util = 0.000378 
issued_two_Eff = 0.002039 
queue_avg = 4.758967 


dram_util_bins: 0 0 0 0 0 0 0 0 0 0
dram_eff_bins: 0 0 0 0 0 0 0 0 0 0
mrqq: max=64 avg=4.75897
Memory Partition 1: 
Cache L2_bank_002:
MSHR contents

Cache L2_bank_003:
MSHR contents

In Dram Latency Queue (total = 0): 
DRAM[1]: 16 bks, busW=4 BL=8 CL=12, tRRD=6 tCCD=2, tRCD=12 tRAS=28 tRP=12 tRC=40
n_cmd=200848 n_nop=163572 n_act=3578 n_pre=3562 n_ref_event=0 n_req=25527 n_rd=20848 n_rd_L2_A=0 n_write=0 n_wr_bk=9358 bw_util=0.3008
n_activity=142572 dram_eff=0.4237
bk0: 1424a 188235i bk1: 1408a 188125i bk2: 1328a 188677i bk3: 1328a 187422i bk4: 1280a 188342i bk5: 1280a 188721i bk6: 1280a 188854i bk7: 1280a 188475i bk8: 1280a 188923i bk9: 1280a 188633i bk10: 1280a 188994i bk11: 1280a 188945i bk12: 1280a 188580i bk13: 1280a 188847i bk14: 1280a 188752i bk15: 1280a 189422i 

------------------------------------------------------------------------

Row_Buffer_Locality = 0.860422
Row_Buffer_Locality_read = 0.913613
Row_Buffer_Locality_write = 0.623424
Bank_Level_Parallism = 1.742549
Bank_Level_Parallism_Col = 1.552883
Bank_Level_Parallism_Ready = 1.103863
write_to_read_ratio_blp_rw_average = 0.389811
GrpLevelPara = 1.552189 

BW Util details:
bwutil = 0.300785 
total_CMD = 200848 
util_bw = 60412 
Wasted_Col = 42377 
Wasted_Row = 23435 
Idle = 74624 

BW Util Bottlenecks: 
RCDc_limit = 16128 
RCDWRc_limit = 8025 
WTRc_limit = 4485 
RTWc_limit = 13565 
CCDLc_limit = 15604 
rwq = 0 
CCDLc_limit_alone = 15604 
WTRc_limit_alone = 4485 
RTWc_limit_alone = 13565 

Commands details: 
total_CMD = 200848 
n_nop = 163572 
Read = 20848 
Write = 0 
L2_Alloc = 0 
L2_WB = 9358 
n_act = 3578 
n_pre = 3562 
n_ref = 0 
n_req = 25527 
total_req = 30206 

Dual Bus Interface Util: 
issued_total_row = 7140 
issued_total_col = 30206 
Row_Bus_Util =  0.035549 
CoL_Bus_Util = 0.150392 
Either_Row_CoL_Bus_Util = 0.185593 
Issued_on_Two_Bus_Simul_Util = 0.000349 
issued_two_Eff = 0.001878 
queue_avg = 4.784753 


dram_util_bins: 0 0 0 0 0 0 0 0 0 0
dram_eff_bins: 0 0 0 0 0 0 0 0 0 0
mrqq: max=64 avg=4.78475
Memory Partition 2: 
Cache L2_bank_004:
MSHR contents

Cache L2_bank_005:
MSHR contents

In Dram Latency Queue (total = 1): 
Ready @ 152175 -   mf: uid=2245702, sid4294967295:w4294967295, part=2, addr=0xc073e880, store, size=128, L2_WRBK  status = IN_PARTITION_DRAM_LATENCY_QUEUE (152075), 
DRAM[2]: 16 bks, busW=4 BL=8 CL=12, tRRD=6 tCCD=2, tRCD=12 tRAS=28 tRP=12 tRC=40
n_cmd=200848 n_nop=163597 n_act=3570 n_pre=3554 n_ref_event=0 n_req=25520 n_rd=20848 n_rd_L2_A=0 n_write=0 n_wr_bk=9344 bw_util=0.3006
n_activity=141461 dram_eff=0.4269
bk0: 1424a 188001i bk1: 1408a 188523i bk2: 1328a 187888i bk3: 1328a 188703i bk4: 1280a 188789i bk5: 1280a 188578i bk6: 1280a 188939i bk7: 1280a 188000i bk8: 1280a 187564i bk9: 1280a 188885i bk10: 1280a 188914i bk11: 1280a 189179i bk12: 1280a 188120i bk13: 1280a 189344i bk14: 1280a 189140i bk15: 1280a 189017i 

------------------------------------------------------------------------

Row_Buffer_Locality = 0.860698
Row_Buffer_Locality_read = 0.914332
Row_Buffer_Locality_write = 0.621361
Bank_Level_Parallism = 1.754995
Bank_Level_Parallism_Col = 1.559931
Bank_Level_Parallism_Ready = 1.096069
write_to_read_ratio_blp_rw_average = 0.391986
GrpLevelPara = 1.550369 

BW Util details:
bwutil = 0.300645 
total_CMD = 200848 
util_bw = 60384 
Wasted_Col = 42274 
Wasted_Row = 22904 
Idle = 75286 

BW Util Bottlenecks: 
RCDc_limit = 15754 
RCDWRc_limit = 8135 
WTRc_limit = 4960 
RTWc_limit = 13721 
CCDLc_limit = 15848 
rwq = 0 
CCDLc_limit_alone = 15710 
WTRc_limit_alone = 4947 
RTWc_limit_alone = 13596 

Commands details: 
total_CMD = 200848 
n_nop = 163597 
Read = 20848 
Write = 0 
L2_Alloc = 0 
L2_WB = 9344 
n_act = 3570 
n_pre = 3554 
n_ref = 0 
n_req = 25520 
total_req = 30192 

Dual Bus Interface Util: 
issued_total_row = 7124 
issued_total_col = 30192 
Row_Bus_Util =  0.035470 
CoL_Bus_Util = 0.150323 
Either_Row_CoL_Bus_Util = 0.185469 
Issued_on_Two_Bus_Simul_Util = 0.000324 
issued_two_Eff = 0.001745 
queue_avg = 4.841870 


dram_util_bins: 0 0 0 0 0 0 0 0 0 0
dram_eff_bins: 0 0 0 0 0 0 0 0 0 0
mrqq: max=64 avg=4.84187
Memory Partition 3: 
Cache L2_bank_006:
MSHR contents

Cache L2_bank_007:
MSHR contents

In Dram Latency Queue (total = 0): 
DRAM[3]: 16 bks, busW=4 BL=8 CL=12, tRRD=6 tCCD=2, tRCD=12 tRAS=28 tRP=12 tRC=40
n_cmd=200848 n_nop=163639 n_act=3554 n_pre=3538 n_ref_event=0 n_req=25516 n_rd=20848 n_rd_L2_A=0 n_write=0 n_wr_bk=9336 bw_util=0.3006
n_activity=141213 dram_eff=0.4275
bk0: 1424a 188731i bk1: 1408a 189026i bk2: 1328a 187912i bk3: 1328a 188455i bk4: 1280a 188162i bk5: 1280a 188722i bk6: 1280a 188503i bk7: 1280a 188799i bk8: 1280a 187948i bk9: 1280a 188880i bk10: 1280a 188859i bk11: 1280a 189364i bk12: 1280a 189085i bk13: 1280a 189370i bk14: 1280a 189078i bk15: 1280a 189165i 

------------------------------------------------------------------------

Row_Buffer_Locality = 0.861303
Row_Buffer_Locality_read = 0.914236
Row_Buffer_Locality_write = 0.624893
Bank_Level_Parallism = 1.743803
Bank_Level_Parallism_Col = 0.000000
Bank_Level_Parallism_Ready = 1.103689
write_to_read_ratio_blp_rw_average = 0.000000
GrpLevelPara = 0.000000 

BW Util details:
bwutil = 0.300566 
total_CMD = 200848 
util_bw = 60368 
Wasted_Col = 42006 
Wasted_Row = 22495 
Idle = 75979 

BW Util Bottlenecks: 
RCDc_limit = 15768 
RCDWRc_limit = 8065 
WTRc_limit = 5127 
RTWc_limit = 12776 
CCDLc_limit = 15488 
rwq = 0 
CCDLc_limit_alone = 15483 
WTRc_limit_alone = 5127 
RTWc_limit_alone = 12771 

Commands details: 
total_CMD = 200848 
n_nop = 163639 
Read = 20848 
Write = 0 
L2_Alloc = 0 
L2_WB = 9336 
n_act = 3554 
n_pre = 3538 
n_ref = 0 
n_req = 25516 
total_req = 30184 

Dual Bus Interface Util: 
issued_total_row = 7092 
issued_total_col = 30184 
Row_Bus_Util =  0.035310 
CoL_Bus_Util = 0.150283 
Either_Row_CoL_Bus_Util = 0.185260 
Issued_on_Two_Bus_Simul_Util = 0.000334 
issued_two_Eff = 0.001801 
queue_avg = 4.688869 


dram_util_bins: 0 0 0 0 0 0 0 0 0 0
dram_eff_bins: 0 0 0 0 0 0 0 0 0 0
mrqq: max=64 avg=4.68887
Memory Partition 4: 
Cache L2_bank_008:
MSHR contents

Cache L2_bank_009:
MSHR contents

In Dram Latency Queue (total = 2): 
Ready @ 152165 -   mf: uid=2245700, sid4294967295:w4294967295, part=4, addr=0xc073ea00, store, size=128, L2_WRBK  status = IN_PARTITION_DRAM_LATENCY_QUEUE (152065), 
Ready @ 152175 -   mf: uid=2245703, sid4294967295:w4294967295, part=4, addr=0xc073ba80, store, size=128, L2_WRBK  status = IN_PARTITION_DRAM_LATENCY_QUEUE (152075), 
DRAM[4]: 16 bks, busW=4 BL=8 CL=12, tRRD=6 tCCD=2, tRCD=12 tRAS=28 tRP=12 tRC=40
n_cmd=200848 n_nop=163589 n_act=3593 n_pre=3577 n_ref_event=0 n_req=25517 n_rd=20852 n_rd_L2_A=0 n_write=0 n_wr_bk=9330 bw_util=0.3005
n_activity=140339 dram_eff=0.4301
bk0: 1420a 187486i bk1: 1416a 188258i bk2: 1328a 188246i bk3: 1328a 188340i bk4: 1280a 188450i bk5: 1280a 189220i bk6: 1280a 188470i bk7: 1280a 188641i bk8: 1280a 187893i bk9: 1280a 189352i bk10: 1280a 188565i bk11: 1280a 189838i bk12: 1280a 188056i bk13: 1280a 188626i bk14: 1280a 188406i bk15: 1280a 188470i 

------------------------------------------------------------------------

Row_Buffer_Locality = 0.859819
Row_Buffer_Locality_read = 0.914205
Row_Buffer_Locality_write = 0.616720
Bank_Level_Parallism = 1.785510
Bank_Level_Parallism_Col = 1.581889
Bank_Level_Parallism_Ready = 1.108436
write_to_read_ratio_blp_rw_average = 0.398019
GrpLevelPara = 1.564317 

BW Util details:
bwutil = 0.300546 
total_CMD = 200848 
util_bw = 60364 
Wasted_Col = 41677 
Wasted_Row = 22081 
Idle = 76726 

BW Util Bottlenecks: 
RCDc_limit = 15782 
RCDWRc_limit = 7893 
WTRc_limit = 4820 
RTWc_limit = 14094 
CCDLc_limit = 15572 
rwq = 0 
CCDLc_limit_alone = 15263 
WTRc_limit_alone = 4803 
RTWc_limit_alone = 13802 

Commands details: 
total_CMD = 200848 
n_nop = 163589 
Read = 20852 
Write = 0 
L2_Alloc = 0 
L2_WB = 9330 
n_act = 3593 
n_pre = 3577 
n_ref = 0 
n_req = 25517 
total_req = 30182 

Dual Bus Interface Util: 
issued_total_row = 7170 
issued_total_col = 30182 
Row_Bus_Util =  0.035699 
CoL_Bus_Util = 0.150273 
Either_Row_CoL_Bus_Util = 0.185508 
Issued_on_Two_Bus_Simul_Util = 0.000463 
issued_two_Eff = 0.002496 
queue_avg = 4.604138 


dram_util_bins: 0 0 0 0 0 0 0 0 0 0
dram_eff_bins: 0 0 0 0 0 0 0 0 0 0
mrqq: max=64 avg=4.60414
Memory Partition 5: 
Cache L2_bank_010:
MSHR contents

Cache L2_bank_011:
MSHR contents

In Dram Latency Queue (total = 1): 
Ready @ 152170 -   mf: uid=2245701, sid4294967295:w4294967295, part=5, addr=0xc073d300, store, size=128, L2_WRBK  status = IN_PARTITION_DRAM_LATENCY_QUEUE (152070), 
DRAM[5]: 16 bks, busW=4 BL=8 CL=12, tRRD=6 tCCD=2, tRCD=12 tRAS=28 tRP=12 tRC=40
n_cmd=200848 n_nop=163536 n_act=3611 n_pre=3595 n_ref_event=4562280503665652019 n_req=25513 n_rd=20848 n_rd_L2_A=0 n_write=0 n_wr_bk=9330 bw_util=0.3005
n_activity=140877 dram_eff=0.4284
bk0: 1416a 188185i bk1: 1416a 189153i bk2: 1328a 188236i bk3: 1328a 188026i bk4: 1280a 188038i bk5: 1280a 189334i bk6: 1280a 188815i bk7: 1280a 188662i bk8: 1280a 187508i bk9: 1280a 189207i bk10: 1280a 188601i bk11: 1280a 189481i bk12: 1280a 189354i bk13: 1280a 188524i bk14: 1280a 188315i bk15: 1280a 188904i 

------------------------------------------------------------------------

Row_Buffer_Locality = 0.859091
Row_Buffer_Locality_read = 0.912749
Row_Buffer_Locality_write = 0.619293
Bank_Level_Parallism = 1.755565
Bank_Level_Parallism_Col = 2.071438
Bank_Level_Parallism_Ready = 1.095129
write_to_read_ratio_blp_rw_average = 0.386256
GrpLevelPara = 1.541665 

BW Util details:
bwutil = 0.300506 
total_CMD = 200848 
util_bw = 60356 
Wasted_Col = 41846 
Wasted_Row = 22732 
Idle = 75914 

BW Util Bottlenecks: 
RCDc_limit = 15949 
RCDWRc_limit = 7962 
WTRc_limit = 4897 
RTWc_limit = 12824 
CCDLc_limit = 15303 
rwq = 0 
CCDLc_limit_alone = 15294 
WTRc_limit_alone = 4897 
RTWc_limit_alone = 12815 

Commands details: 
total_CMD = 200848 
n_nop = 163536 
Read = 20848 
Write = 0 
L2_Alloc = 0 
L2_WB = 9330 
n_act = 3611 
n_pre = 3595 
n_ref = 4562280503665652019 
n_req = 25513 
total_req = 30178 

Dual Bus Interface Util: 
issued_total_row = 7206 
issued_total_col = 30178 
Row_Bus_Util =  0.035878 
CoL_Bus_Util = 0.150253 
Either_Row_CoL_Bus_Util = 0.185772 
Issued_on_Two_Bus_Simul_Util = 0.000358 
issued_two_Eff = 0.001930 
queue_avg = 4.611647 


dram_util_bins: 0 0 0 0 0 0 0 0 0 0
dram_eff_bins: 0 0 0 0 0 0 0 0 0 0
mrqq: max=64 avg=4.61165

========= L2 cache stats =========
L2_cache_bank[0]: Access = 53415, Miss = 23345, Miss_rate = 0.437, Pending_hits = 8145, Reservation_fails = 360
L2_cache_bank[1]: Access = 53400, Miss = 23357, Miss_rate = 0.437, Pending_hits = 7243, Reservation_fails = 294
L2_cache_bank[2]: Access = 50619, Miss = 23365, Miss_rate = 0.462, Pending_hits = 7951, Reservation_fails = 456
L2_cache_bank[3]: Access = 50408, Miss = 23339, Miss_rate = 0.463, Pending_hits = 7151, Reservation_fails = 69
L2_cache_bank[4]: Access = 53501, Miss = 23362, Miss_rate = 0.437, Pending_hits = 7960, Reservation_fails = 474
L2_cache_bank[5]: Access = 50373, Miss = 23344, Miss_rate = 0.463, Pending_hits = 7506, Reservation_fails = 92
L2_cache_bank[6]: Access = 50652, Miss = 23360, Miss_rate = 0.461, Pending_hits = 7684, Reservation_fails = 421
L2_cache_bank[7]: Access = 50347, Miss = 23363, Miss_rate = 0.464, Pending_hits = 7597, Reservation_fails = 11
L2_cache_bank[8]: Access = 53490, Miss = 23360, Miss_rate = 0.437, Pending_hits = 7316, Reservation_fails = 249
L2_cache_bank[9]: Access = 53363, Miss = 23348, Miss_rate = 0.438, Pending_hits = 7808, Reservation_fails = 333
L2_cache_bank[10]: Access = 50529, Miss = 23337, Miss_rate = 0.462, Pending_hits = 7298, Reservation_fails = 196
L2_cache_bank[11]: Access = 50465, Miss = 23345, Miss_rate = 0.463, Pending_hits = 8017, Reservation_fails = 448
L2_total_cache_accesses = 620562
L2_total_cache_misses = 280225
L2_total_cache_miss_rate = 0.4516
L2_total_cache_pending_hits = 91676
L2_total_cache_reservation_fails = 3403
L2_total_cache_breakdown:
	L2_cache_stats_breakdown[GLOBAL_ACC_R][HIT] = 228254
	L2_cache_stats_breakdown[GLOBAL_ACC_R][HIT_RESERVED] = 91378
	L2_cache_stats_breakdown[GLOBAL_ACC_R][MISS] = 31250
	L2_cache_stats_breakdown[GLOBAL_ACC_R][RESERVATION_FAIL] = 946
	L2_cache_stats_breakdown[GLOBAL_ACC_R][SECTOR_MISS] = 93750
	L2_cache_stats_breakdown[LOCAL_ACC_R][HIT] = 0
	L2_cache_stats_breakdown[LOCAL_ACC_R][HIT_RESERVED] = 0
	L2_cache_stats_breakdown[LOCAL_ACC_R][MISS] = 0
	L2_cache_stats_breakdown[LOCAL_ACC_R][RESERVATION_FAIL] = 0
	L2_cache_stats_breakdown[LOCAL_ACC_R][SECTOR_MISS] = 0
	L2_cache_stats_breakdown[CONST_ACC_R][HIT] = 22
	L2_cache_stats_breakdown[CONST_ACC_R][HIT_RESERVED] = 6
	L2_cache_stats_breakdown[CONST_ACC_R][MISS] = 1
	L2_cache_stats_breakdown[CONST_ACC_R][RESERVATION_FAIL] = 106
	L2_cache_stats_breakdown[CONST_ACC_R][SECTOR_MISS] = 1
	L2_cache_stats_breakdown[TEXTURE_ACC_R][HIT] = 0
	L2_cache_stats_breakdown[TEXTURE_ACC_R][HIT_RESERVED] = 0
	L2_cache_stats_breakdown[TEXTURE_ACC_R][MISS] = 0
	L2_cache_stats_breakdown[TEXTURE_ACC_R][RESERVATION_FAIL] = 0
	L2_cache_stats_breakdown[TEXTURE_ACC_R][SECTOR_MISS] = 0
	L2_cache_stats_breakdown[GLOBAL_ACC_W][HIT] = 4877
	L2_cache_stats_breakdown[GLOBAL_ACC_W][HIT_RESERVED] = 0
	L2_cache_stats_breakdown[GLOBAL_ACC_W][MISS] = 31250
	L2_cache_stats_breakdown[GLOBAL_ACC_W][RESERVATION_FAIL] = 0
	L2_cache_stats_breakdown[GLOBAL_ACC_W][SECTOR_MISS] = 123873
	L2_cache_stats_breakdown[LOCAL_ACC_W][HIT] = 0
	L2_cache_stats_breakdown[LOCAL_ACC_W][HIT_RESERVED] = 0
	L2_cache_stats_breakdown[LOCAL_ACC_W][MISS] = 0
	L2_cache_stats_breakdown[LOCAL_ACC_W][RESERVATION_FAIL] = 0
	L2_cache_stats_breakdown[LOCAL_ACC_W][SECTOR_MISS] = 0
	L2_cache_stats_breakdown[L1_WRBK_ACC][HIT] = 0
	L2_cache_stats_breakdown[L1_WRBK_ACC][HIT_RESERVED] = 0
	L2_cache_stats_breakdown[L1_WRBK_ACC][MISS] = 0
	L2_cache_stats_breakdown[L1_WRBK_ACC][RESERVATION_FAIL] = 0
	L2_cache_stats_breakdown[L1_WRBK_ACC][SECTOR_MISS] = 0
	L2_cache_stats_breakdown[L2_WRBK_ACC][HIT] = 0
	L2_cache_stats_breakdown[L2_WRBK_ACC][HIT_RESERVED] = 0
	L2_cache_stats_breakdown[L2_WRBK_ACC][MISS] = 0
	L2_cache_stats_breakdown[L2_WRBK_ACC][RESERVATION_FAIL] = 0
	L2_cache_stats_breakdown[L2_WRBK_ACC][SECTOR_MISS] = 0
	L2_cache_stats_breakdown[INST_ACC_R][HIT] = 15508
	L2_cache_stats_breakdown[INST_ACC_R][HIT_RESERVED] = 292
	L2_cache_stats_breakdown[INST_ACC_R][MISS] = 25
	L2_cache_stats_breakdown[INST_ACC_R][RESERVATION_FAIL] = 2351
	L2_cache_stats_breakdown[INST_ACC_R][SECTOR_MISS] = 75
	L2_cache_stats_breakdown[L1_WR_ALLOC_R][HIT] = 0
	L2_cache_stats_breakdown[L1_WR_ALLOC_R][HIT_RESERVED] = 0
	L2_cache_stats_breakdown[L1_WR_ALLOC_R][MISS] = 0
	L2_cache_stats_breakdown[L1_WR_ALLOC_R][RESERVATION_FAIL] = 0
	L2_cache_stats_breakdown[L1_WR_ALLOC_R][SECTOR_MISS] = 0
	L2_cache_stats_breakdown[L2_WR_ALLOC_R][HIT] = 0
	L2_cache_stats_breakdown[L2_WR_ALLOC_R][HIT_RESERVED] = 0
	L2_cache_stats_breakdown[L2_WR_ALLOC_R][MISS] = 0
	L2_cache_stats_breakdown[L2_WR_ALLOC_R][RESERVATION_FAIL] = 0
	L2_cache_stats_breakdown[L2_WR_ALLOC_R][SECTOR_MISS] = 0
	L2_cache_stats_breakdown[GLOBAL_ACC_R][TOTAL_ACCESS] = 444632
	L2_cache_stats_breakdown[CONST_ACC_R][TOTAL_ACCESS] = 30
	L2_cache_stats_breakdown[GLOBAL_ACC_W][TOTAL_ACCESS] = 160000
	L2_cache_stats_breakdown[INST_ACC_R][TOTAL_ACCESS] = 15900
L2_total_cache_reservation_fail_breakdown:
	L2_cache_stats_fail_breakdown[GLOBAL_ACC_R][MISS_QUEUE_FULL] = 87
	L2_cache_stats_fail_breakdown[GLOBAL_ACC_R][MSHR_MERGE_ENRTY_FAIL] = 859
	L2_cache_stats_fail_breakdown[CONST_ACC_R][MSHR_MERGE_ENRTY_FAIL] = 106
	L2_cache_stats_fail_breakdown[INST_ACC_R][MSHR_MERGE_ENRTY_FAIL] = 2351
L2_cache_data_port_util = 0.172
L2_cache_fill_port_util = 0.069

icnt_total_pkts_mem_to_simt=620562
icnt_total_pkts_simt_to_mem=275148
LD_mem_lat_dist  0 0 0 0 0 0 0 0 0 0 0 0 0 0 0 0 0 0 0 0 0 0 0 0 0 0 0
ST_mem_lat_dist  0 0 0 0 0 0 0 0 0 0 0 0 0 0 0 0 0 0 0 0 0 0 0 0 0 0 0
----------------------------Interconnect-DETAILS--------------------------------
Class 0:
Packet latency average = 25.4906
	minimum = 5
	maximum = 200
Network latency average = 25.0054
	minimum = 5
	maximum = 200
Slowest packet = 428232
Flit latency average = 22.9314
	minimum = 5
	maximum = 200
Slowest flit = 477295
Fragmentation average = 0
	minimum = 0
	maximum = 0
Injected packet rate average = 0.195206
	minimum = 0.0687838 (at node 12)
	maximum = 0.351615 (at node 19)
Accepted packet rate average = 0.195206
	minimum = 0.0970964 (at node 22)
	maximum = 0.302357 (at node 6)
Injected flit rate average = 0.218026
	minimum = 0.101644 (at node 12)
	maximum = 0.351615 (at node 19)
Accepted flit rate average= 0.218026
	minimum = 0.148451 (at node 22)
	maximum = 0.302357 (at node 6)
Injected packet length average = 1.1169
Accepted packet length average = 1.1169
Total in-flight flits = 0 (0 measured)
====== Overall Traffic Statistics ======
====== Traffic class 0 ======
Packet latency average = 25.4906 (1 samples)
	minimum = 5 (1 samples)
	maximum = 200 (1 samples)
Network latency average = 25.0054 (1 samples)
	minimum = 5 (1 samples)
	maximum = 200 (1 samples)
Flit latency average = 22.9314 (1 samples)
	minimum = 5 (1 samples)
	maximum = 200 (1 samples)
Fragmentation average = 0 (1 samples)
	minimum = 0 (1 samples)
	maximum = 0 (1 samples)
Injected packet rate average = 0.195206 (1 samples)
	minimum = 0.0687838 (1 samples)
	maximum = 0.351615 (1 samples)
Accepted packet rate average = 0.195206 (1 samples)
	minimum = 0.0970964 (1 samples)
	maximum = 0.302357 (1 samples)
Injected flit rate average = 0.218026 (1 samples)
	minimum = 0.101644 (1 samples)
	maximum = 0.351615 (1 samples)
Accepted flit rate average = 0.218026 (1 samples)
	minimum = 0.148451 (1 samples)
	maximum = 0.302357 (1 samples)
Injected packet size average = 1.1169 (1 samples)
Accepted packet size average = 1.1169 (1 samples)
Hops average = 1 (1 samples)
----------------------------END-of-Interconnect-DETAILS-------------------------


gpgpu_simulation_time = 0 days, 0 hrs, 1 min, 45 sec (105 sec)
gpgpu_simulation_rate = 555173 (inst/sec)
gpgpu_simulation_rate = 1449 (cycle/sec)
gpgpu_silicon_slowdown = 483091x
GPGPU-Sim: synchronize waiting for inactive GPU simulation
GPGPU-Sim API: Stream Manager State
GPGPU-Sim: detected inactive GPU simulation thread

1x GPU_laplace3d: 103883.640625 (ms) 

Copy u2 to host: 71.289001 (ms) 

1x Gold_laplace3d: 13.882000 (ms) 
 

 rms error = 0.000000 
CUDA_SAFE_CALL( cudaFree(d_u1) );
CUDA_SAFE_CALL( cudaFree(d_u2) );
free(h_u1);
free(h_u2);
free(h_u3);
GPGPU-Sim: *** exit detected ***
