

        *** GPGPU-Sim Simulator Version 4.0.0  [build gpgpu-sim_git-commit-90ec3399763d7c8512cfe7dc193473086c38ca38_modified_0.0] ***


GPGPU-Sim PTX: simulation mode 0 (can change with PTX_SIM_MODE_FUNC environment variable:
               1=functional simulation only, 0=detailed performance simulator)
GPGPU-Sim PTX: overriding embedded ptx with ptx file (PTX_SIM_USE_PTX_FILE is set)
GPGPU-Sim: Configuration options:

-save_embedded_ptx                      0 # saves ptx files embedded in binary as <n>.ptx
-keep                                   0 # keep intermediate files created by GPGPU-Sim when interfacing with external programs
-gpgpu_ptx_save_converted_ptxplus                    0 # Saved converted ptxplus to a file
-gpgpu_occupancy_sm_number                   20 # The SM number to pass to ptxas when getting register usage for computing GPU occupancy. This parameter is required in the config.
-ptx_opcode_latency_int      4,13,4,5,145,32 # Opcode latencies for integers <ADD,MAX,MUL,MAD,DIV,SHFL>Default 1,1,19,25,145,32
-ptx_opcode_latency_fp          4,13,4,5,39 # Opcode latencies for single precision floating points <ADD,MAX,MUL,MAD,DIV>Default 1,1,1,1,30
-ptx_opcode_latency_dp         8,19,8,8,330 # Opcode latencies for double precision floating points <ADD,MAX,MUL,MAD,DIV>Default 8,8,8,8,335
-ptx_opcode_latency_sfu                    8 # Opcode latencies for SFU instructionsDefault 8
-ptx_opcode_latency_tesnor                   64 # Opcode latencies for Tensor instructionsDefault 64
-ptx_opcode_initiation_int          1,2,2,1,8,4 # Opcode initiation intervals for integers <ADD,MAX,MUL,MAD,DIV,SHFL>Default 1,1,4,4,32,4
-ptx_opcode_initiation_fp            1,2,1,1,4 # Opcode initiation intervals for single precision floating points <ADD,MAX,MUL,MAD,DIV>Default 1,1,1,1,5
-ptx_opcode_initiation_dp         8,16,8,8,130 # Opcode initiation intervals for double precision floating points <ADD,MAX,MUL,MAD,DIV>Default 8,8,8,8,130
-ptx_opcode_initiation_sfu                    8 # Opcode initiation intervals for sfu instructionsDefault 8
-ptx_opcode_initiation_tensor                   64 # Opcode initiation intervals for tensor instructionsDefault 64
-cdp_latency         7200,8000,100,12000,1600 # CDP API latency <cudaStreamCreateWithFlags, cudaGetParameterBufferV2_init_perWarp, cudaGetParameterBufferV2_perKernel, cudaLaunchDeviceV2_init_perWarp, cudaLaunchDevicV2_perKernel>Default 7200,8000,100,12000,1600
-network_mode                           1 # Interconnection network mode
-inter_config_file   config_fermi_islip.icnt # Interconnection network config file
-icnt_in_buffer_limit                   64 # in_buffer_limit
-icnt_out_buffer_limit                   64 # out_buffer_limit
-icnt_subnets                           2 # subnets
-icnt_arbiter_algo                      1 # arbiter_algo
-icnt_verbose                           0 # inct_verbose
-icnt_grant_cycles                      1 # grant_cycles
-gpgpu_ptx_use_cuobjdump                    1 # Use cuobjdump to extract ptx and sass from binaries
-gpgpu_experimental_lib_support                    0 # Try to extract code from cuda libraries [Broken because of unknown cudaGetExportTable]
-checkpoint_option                      0 #  checkpointing flag (0 = no checkpoint)
-checkpoint_kernel                      1 #  checkpointing during execution of which kernel (1- 1st kernel)
-checkpoint_CTA                         0 #  checkpointing after # of CTA (< less than total CTA)
-resume_option                          0 #  resume flag (0 = no resume)
-resume_kernel                          0 #  Resume from which kernel (1= 1st kernel)
-resume_CTA                             0 #  resume from which CTA 
-checkpoint_CTA_t                       0 #  resume from which CTA 
-checkpoint_insn_Y                      0 #  resume from which CTA 
-gpgpu_ptx_convert_to_ptxplus                    0 # Convert SASS (native ISA) to ptxplus and run ptxplus
-gpgpu_ptx_force_max_capability                   20 # Force maximum compute capability
-gpgpu_ptx_inst_debug_to_file                    0 # Dump executed instructions' debug information to file
-gpgpu_ptx_inst_debug_file       inst_debug.txt # Executed instructions' debug output file
-gpgpu_ptx_inst_debug_thread_uid                    1 # Thread UID for executed instructions' debug output
-gpgpu_simd_model                       1 # 1 = post-dominator
-gpgpu_shader_core_pipeline              1536:32 # shader core pipeline config, i.e., {<nthread>:<warpsize>}
-gpgpu_tex_cache:l1  N:4:128:24,L:R:m:N:L,T:128:4,128:2 # per-shader L1 texture cache  (READ-ONLY) config  {<nsets>:<bsize>:<assoc>,<rep>:<wr>:<alloc>:<wr_alloc>,<mshr>:<N>:<merge>,<mq>:<rf>}
-gpgpu_const_cache:l1 N:64:64:2,L:R:f:N:L,S:2:32,4 # per-shader L1 constant memory cache  (READ-ONLY) config  {<nsets>:<bsize>:<assoc>,<rep>:<wr>:<alloc>:<wr_alloc>,<mshr>:<N>:<merge>,<mq>} 
-gpgpu_cache:il1     N:4:128:4,L:R:f:N:L,S:2:32,4 # shader L1 instruction cache config  {<nsets>:<bsize>:<assoc>,<rep>:<wr>:<alloc>:<wr_alloc>,<mshr>:<N>:<merge>,<mq>} 
-gpgpu_cache:dl1     N:32:128:4,L:L:m:N:H,S:64:8,8 # per-shader L1 data cache config  {<nsets>:<bsize>:<assoc>,<rep>:<wr>:<alloc>:<wr_alloc>,<mshr>:<N>:<merge>,<mq> | none}
-gpgpu_l1_banks                         1 # The number of L1 cache banks
-gpgpu_l1_banks_byte_interleaving                   32 # l1 banks byte interleaving granularity
-gpgpu_l1_banks_hashing_function                    0 # l1 banks hashing function
-gpgpu_l1_latency                      35 # L1 Hit Latency
-gpgpu_smem_latency                    26 # smem Latency
-gpgpu_cache:dl1PrefL1                 none # per-shader L1 data cache config  {<nsets>:<bsize>:<assoc>,<rep>:<wr>:<alloc>:<wr_alloc>,<mshr>:<N>:<merge>,<mq> | none}
-gpgpu_cache:dl1PrefShared                 none # per-shader L1 data cache config  {<nsets>:<bsize>:<assoc>,<rep>:<wr>:<alloc>:<wr_alloc>,<mshr>:<N>:<merge>,<mq> | none}
-gpgpu_gmem_skip_L1D                    0 # global memory access skip L1D cache (implements -Xptxas -dlcm=cg, default=no skip)
-gpgpu_perfect_mem                      0 # enable perfect memory mode (no cache miss)
-n_regfile_gating_group                    4 # group of lanes that should be read/written together)
-gpgpu_clock_gated_reg_file                    0 # enable clock gated reg file for power calculations
-gpgpu_clock_gated_lanes                    0 # enable clock gated lanes for power calculations
-gpgpu_shader_registers                32768 # Number of registers per shader core. Limits number of concurrent CTAs. (default 8192)
-gpgpu_registers_per_block                 8192 # Maximum number of registers per CTA. (default 8192)
-gpgpu_ignore_resources_limitation                    0 # gpgpu_ignore_resources_limitation (default 0)
-gpgpu_shader_cta                       8 # Maximum number of concurrent CTAs in shader (default 8)
-gpgpu_num_cta_barriers                   16 # Maximum number of named barriers per CTA (default 16)
-gpgpu_n_clusters                      15 # number of processing clusters
-gpgpu_n_cores_per_cluster                    1 # number of simd cores per cluster
-gpgpu_n_cluster_ejection_buffer_size                   32 # number of packets in ejection buffer
-gpgpu_n_ldst_response_buffer_size                    2 # number of response packets in ld/st unit ejection buffer
-gpgpu_shmem_per_block                49152 # Size of shared memory per thread block or CTA (default 48kB)
-gpgpu_shmem_size                   49152 # Size of shared memory per shader core (default 16kB)
-gpgpu_adaptive_cache_config                    0 # adaptive_cache_config
-gpgpu_shmem_sizeDefault                49152 # Size of shared memory per shader core (default 16kB)
-gpgpu_shmem_size_PrefL1                16384 # Size of shared memory per shader core (default 16kB)
-gpgpu_shmem_size_PrefShared                16384 # Size of shared memory per shader core (default 16kB)
-gpgpu_shmem_num_banks                   32 # Number of banks in the shared memory in each shader core (default 16)
-gpgpu_shmem_limited_broadcast                    0 # Limit shared memory to do one broadcast per cycle (default on)
-gpgpu_shmem_warp_parts                    1 # Number of portions a warp is divided into for shared memory bank conflict check 
-gpgpu_mem_unit_ports                    1 # The number of memory transactions allowed per core cycle
-gpgpu_shmem_warp_parts                    1 # Number of portions a warp is divided into for shared memory bank conflict check 
-gpgpu_warpdistro_shader                   -1 # Specify which shader core to collect the warp size distribution from
-gpgpu_warp_issue_shader                    0 # Specify which shader core to collect the warp issue distribution from
-gpgpu_local_mem_map                    1 # Mapping from local memory space address to simulated GPU physical address space (default = enabled)
-gpgpu_num_reg_banks                   16 # Number of register banks (default = 8)
-gpgpu_reg_bank_use_warp_id                    0 # Use warp ID in mapping registers to banks (default = off)
-gpgpu_sub_core_model                    0 # Sub Core Volta/Pascal model (default = off)
-gpgpu_enable_specialized_operand_collector                    1 # enable_specialized_operand_collector
-gpgpu_operand_collector_num_units_sp                    6 # number of collector units (default = 4)
-gpgpu_operand_collector_num_units_dp                    0 # number of collector units (default = 0)
-gpgpu_operand_collector_num_units_sfu                    8 # number of collector units (default = 4)
-gpgpu_operand_collector_num_units_int                    0 # number of collector units (default = 0)
-gpgpu_operand_collector_num_units_tensor_core                    4 # number of collector units (default = 4)
-gpgpu_operand_collector_num_units_mem                    2 # number of collector units (default = 2)
-gpgpu_operand_collector_num_units_gen                    0 # number of collector units (default = 0)
-gpgpu_operand_collector_num_in_ports_sp                    2 # number of collector unit in ports (default = 1)
-gpgpu_operand_collector_num_in_ports_dp                    0 # number of collector unit in ports (default = 0)
-gpgpu_operand_collector_num_in_ports_sfu                    1 # number of collector unit in ports (default = 1)
-gpgpu_operand_collector_num_in_ports_int                    0 # number of collector unit in ports (default = 0)
-gpgpu_operand_collector_num_in_ports_tensor_core                    1 # number of collector unit in ports (default = 1)
-gpgpu_operand_collector_num_in_ports_mem                    1 # number of collector unit in ports (default = 1)
-gpgpu_operand_collector_num_in_ports_gen                    0 # number of collector unit in ports (default = 0)
-gpgpu_operand_collector_num_out_ports_sp                    2 # number of collector unit in ports (default = 1)
-gpgpu_operand_collector_num_out_ports_dp                    0 # number of collector unit in ports (default = 0)
-gpgpu_operand_collector_num_out_ports_sfu                    1 # number of collector unit in ports (default = 1)
-gpgpu_operand_collector_num_out_ports_int                    0 # number of collector unit in ports (default = 0)
-gpgpu_operand_collector_num_out_ports_tensor_core                    1 # number of collector unit in ports (default = 1)
-gpgpu_operand_collector_num_out_ports_mem                    1 # number of collector unit in ports (default = 1)
-gpgpu_operand_collector_num_out_ports_gen                    0 # number of collector unit in ports (default = 0)
-gpgpu_coalesce_arch                   20 # Coalescing arch (GT200 = 13, Fermi = 20)
-gpgpu_num_sched_per_core                    2 # Number of warp schedulers per core
-gpgpu_max_insn_issue_per_warp                    1 # Max number of instructions that can be issued per warp in one cycle by scheduler (either 1 or 2)
-gpgpu_dual_issue_diff_exec_units                    1 # should dual issue use two different execution unit resources (Default = 1)
-gpgpu_simt_core_sim_order                    1 # Select the simulation order of cores in a cluster (0=Fix, 1=Round-Robin)
-gpgpu_pipeline_widths 2,0,0,1,1,2,0,0,1,1,2 # Pipeline widths ID_OC_SP,ID_OC_DP,ID_OC_INT,ID_OC_SFU,ID_OC_MEM,OC_EX_SP,OC_EX_DP,OC_EX_INT,OC_EX_SFU,OC_EX_MEM,EX_WB,ID_OC_TENSOR_CORE,OC_EX_TENSOR_CORE
-gpgpu_tensor_core_avail                    0 # Tensor Core Available (default=0)
-gpgpu_num_sp_units                     2 # Number of SP units (default=1)
-gpgpu_num_dp_units                     0 # Number of DP units (default=0)
-gpgpu_num_int_units                    0 # Number of INT units (default=0)
-gpgpu_num_sfu_units                    1 # Number of SF units (default=1)
-gpgpu_num_tensor_core_units                    0 # Number of tensor_core units (default=1)
-gpgpu_num_mem_units                    1 # Number if ldst units (default=1) WARNING: not hooked up to anything
-gpgpu_scheduler                      gto # Scheduler configuration: < lrr | gto | two_level_active > If two_level_active:<num_active_warps>:<inner_prioritization>:<outer_prioritization>For complete list of prioritization values see shader.h enum scheduler_prioritization_typeDefault: gto
-gpgpu_concurrent_kernel_sm                    0 # Support concurrent kernels on a SM (default = disabled)
-gpgpu_perfect_inst_const_cache                    0 # perfect inst and const cache mode, so all inst and const hits in the cache(default = disabled)
-gpgpu_inst_fetch_throughput                    1 # the number of fetched intruction per warp each cycle
-gpgpu_reg_file_port_throughput                    1 # the number ports of the register file
-specialized_unit_1         0,4,4,4,4,BRA # specialized unit config {<enabled>,<num_units>:<latency>:<initiation>,<ID_OC_SPEC>:<OC_EX_SPEC>,<NAME>}
-specialized_unit_2         0,4,4,4,4,BRA # specialized unit config {<enabled>,<num_units>:<latency>:<initiation>,<ID_OC_SPEC>:<OC_EX_SPEC>,<NAME>}
-specialized_unit_3         0,4,4,4,4,BRA # specialized unit config {<enabled>,<num_units>:<latency>:<initiation>,<ID_OC_SPEC>:<OC_EX_SPEC>,<NAME>}
-specialized_unit_4         0,4,4,4,4,BRA # specialized unit config {<enabled>,<num_units>:<latency>:<initiation>,<ID_OC_SPEC>:<OC_EX_SPEC>,<NAME>}
-specialized_unit_5         0,4,4,4,4,BRA # specialized unit config {<enabled>,<num_units>:<latency>:<initiation>,<ID_OC_SPEC>:<OC_EX_SPEC>,<NAME>}
-specialized_unit_6         0,4,4,4,4,BRA # specialized unit config {<enabled>,<num_units>:<latency>:<initiation>,<ID_OC_SPEC>:<OC_EX_SPEC>,<NAME>}
-specialized_unit_7         0,4,4,4,4,BRA # specialized unit config {<enabled>,<num_units>:<latency>:<initiation>,<ID_OC_SPEC>:<OC_EX_SPEC>,<NAME>}
-specialized_unit_8         0,4,4,4,4,BRA # specialized unit config {<enabled>,<num_units>:<latency>:<initiation>,<ID_OC_SPEC>:<OC_EX_SPEC>,<NAME>}
-gpgpu_perf_sim_memcpy                    1 # Fill the L2 cache on memcpy
-gpgpu_simple_dram_model                    0 # simple_dram_model with fixed latency and BW
-gpgpu_dram_scheduler                    1 # 0 = fifo, 1 = FR-FCFS (defaul)
-gpgpu_dram_partition_queues          64:64:64:64 # i2$:$2d:d2$:$2i
-l2_ideal                               0 # Use a ideal L2 cache that always hit
-gpgpu_cache:dl2     S:64:128:8,L:B:m:L:L,A:256:4,4:0,32 # unified banked L2 data cache config  {<nsets>:<bsize>:<assoc>,<rep>:<wr>:<alloc>:<wr_alloc>,<mshr>:<N>:<merge>,<mq>}
-gpgpu_cache:dl2_texture_only                    0 # L2 cache used for texture only
-gpgpu_n_mem                            6 # number of memory modules (e.g. memory controllers) in gpu
-gpgpu_n_sub_partition_per_mchannel                    2 # number of memory subpartition in each memory module
-gpgpu_n_mem_per_ctrlr                    2 # number of memory chips per memory controller
-gpgpu_memlatency_stat                   14 # track and display latency statistics 0x2 enables MC, 0x4 enables queue logs
-gpgpu_frfcfs_dram_sched_queue_size                   64 # 0 = unlimited (default); # entries per chip
-gpgpu_dram_return_queue_size                  116 # 0 = unlimited (default); # entries per chip
-gpgpu_dram_buswidth                    4 # default = 4 bytes (8 bytes per cycle at DDR)
-gpgpu_dram_burst_length                    8 # Burst length of each DRAM request (default = 4 data bus cycle)
-dram_data_command_freq_ratio                    4 # Frequency ratio between DRAM data bus and command bus (default = 2 times, i.e. DDR)
-gpgpu_dram_timing_opt nbk=16:CCD=2:RRD=6:RCD=12:RAS=28:RP=12:RC=40: CL=12:WL=4:CDLR=5:WR=12:nbkgrp=4:CCDL=3:RTPL=2 # DRAM timing parameters = {nbk:tCCD:tRRD:tRCD:tRAS:tRP:tRC:CL:WL:tCDLR:tWR:nbkgrp:tCCDL:tRTPL}
-gpgpu_l2_rop_latency                  120 # ROP queue latency (default 85)
-dram_latency                         100 # DRAM latency (default 30)
-dram_dual_bus_interface                    0 # dual_bus_interface (default = 0) 
-dram_bnk_indexing_policy                    0 # dram_bnk_indexing_policy (0 = normal indexing, 1 = Xoring with the higher bits) (Default = 0)
-dram_bnkgrp_indexing_policy                    1 # dram_bnkgrp_indexing_policy (0 = take higher bits, 1 = take lower bits) (Default = 0)
-dram_seperate_write_queue_enable                    0 # Seperate_Write_Queue_Enable
-dram_write_queue_size             32:28:16 # Write_Queue_Size
-dram_elimnate_rw_turnaround                    0 # elimnate_rw_turnaround i.e set tWTR and tRTW = 0
-icnt_flit_size                        40 # icnt_flit_size
-gpgpu_mem_addr_mapping dramid@8;00000000.00000000.00000000.00000000.0000RRRR.RRRRRRRR.BBBCCCCB.CCSSSSSS # mapping memory address to dram model {dramid@<start bit>;<memory address map>}
-gpgpu_mem_addr_test                    0 # run sweep test to check address mapping for aliased address
-gpgpu_mem_address_mask                    1 # 0 = old addressing mask, 1 = new addressing mask, 2 = new add. mask + flipped bank sel and chip sel bits
-gpgpu_memory_partition_indexing                    0 # 0 = no indexing, 1 = bitwise xoring, 2 = IPoly, 3 = custom indexing
-gpuwattch_xml_file  gpuwattch_gtx480.xml # GPUWattch XML file
-power_simulation_enabled                    1 # Turn on power simulator (1=On, 0=Off)
-power_per_cycle_dump                    0 # Dump detailed power output each cycle
-power_trace_enabled                    0 # produce a file for the power trace (1=On, 0=Off)
-power_trace_zlevel                     6 # Compression level of the power trace output log (0=no comp, 9=highest)
-steady_power_levels_enabled                    0 # produce a file for the steady power levels (1=On, 0=Off)
-steady_state_definition                  8:4 # allowed deviation:number of samples
-gpgpu_max_cycle                        0 # terminates gpu simulation early (0 = no limit)
-gpgpu_max_insn                 100000000 # terminates gpu simulation early (0 = no limit)
-gpgpu_max_cta                          0 # terminates gpu simulation early (0 = no limit)
-gpgpu_max_completed_cta                    0 # terminates gpu simulation early (0 = no limit)
-gpgpu_runtime_stat                   500 # display runtime statistics such as dram utilization {<freq>:<flag>}
-liveness_message_freq                    1 # Minimum number of seconds between simulation liveness messages (0 = always print)
-gpgpu_compute_capability_major                    2 # Major compute capability version number
-gpgpu_compute_capability_minor                    0 # Minor compute capability version number
-gpgpu_flush_l1_cache                    1 # Flush L1 cache at the end of each kernel call
-gpgpu_flush_l2_cache                    0 # Flush L2 cache at the end of each kernel call
-gpgpu_deadlock_detect                    1 # Stop the simulation at deadlock (1=on (default), 0=off)
-gpgpu_ptx_instruction_classification                    0 # if enabled will classify ptx instruction types per kernel (Max 255 kernels now)
-gpgpu_ptx_sim_mode                     0 # Select between Performance (default) or Functional simulation (1)
-gpgpu_clock_domains 700.0:700.0:700.0:924.0 # Clock Domain Frequencies in MhZ {<Core Clock>:<ICNT Clock>:<L2 Clock>:<DRAM Clock>}
-gpgpu_max_concurrent_kernel                    8 # maximum kernels that can run concurrently on GPU
-gpgpu_cflog_interval                    0 # Interval between each snapshot in control flow logger
-visualizer_enabled                     0 # Turn on visualizer output (1=On, 0=Off)
-visualizer_outputfile                 NULL # Specifies the output log file for visualizer
-visualizer_zlevel                      6 # Compression level of the visualizer output log (0=no comp, 9=highest)
-gpgpu_stack_size_limit                 1024 # GPU thread stack size
-gpgpu_heap_size_limit              8388608 # GPU malloc heap size 
-gpgpu_runtime_sync_depth_limit                    2 # GPU device runtime synchronize depth
-gpgpu_runtime_pending_launch_count_limit                 2048 # GPU device runtime pending launch count
-trace_enabled                          0 # Turn on traces
-trace_components                    none # comma seperated list of traces to enable. Complete list found in trace_streams.tup. Default none
-trace_sampling_core                    0 # The core which is printed using CORE_DPRINTF. Default 0
-trace_sampling_memory_partition                   -1 # The memory partition which is printed using MEMPART_DPRINTF. Default -1 (i.e. all)
-enable_ptx_file_line_stats                    1 # Turn on PTX source line statistic profiling. (1 = On)
-ptx_line_stats_filename gpgpu_inst_stats.txt # Output file for PTX source line statistics.
-gpgpu_kernel_launch_latency                    0 # Kernel launch latency in cycles. Default: 0
-gpgpu_cdp_enabled                      0 # Turn on CDP
-gpgpu_TB_launch_latency                    0 # thread block launch latency in cycles. Default: 0
DRAM Timing Options:
nbk                                    16 # number of banks
CCD                                     2 # column to column delay
RRD                                     6 # minimal delay between activation of rows in different banks
RCD                                    12 # row to column delay
RAS                                    28 # time needed to activate row
RP                                     12 # time needed to precharge (deactivate) row
RC                                     40 # row cycle time
CDLR                                    5 # switching from write to read (changes tWTR)
WR                                     12 # last data-in to row precharge
CL                                     12 # CAS latency
WL                                      4 # Write latency
nbkgrp                                  4 # number of bank groups
CCDL                                    3 # column to column delay between accesses to different bank groups
RTPL                                    2 # read to precharge delay between accesses to different bank groups
Total number of memory sub partition = 12
addr_dec_mask[CHIP]  = 0000000000000000 	high:64 low:0
addr_dec_mask[BK]    = 000000000000e100 	high:16 low:8
addr_dec_mask[ROW]   = 000000000fff0000 	high:28 low:16
addr_dec_mask[COL]   = 0000000000001eff 	high:13 low:0
addr_dec_mask[BURST] = 000000000000003f 	high:6 low:0
sub_partition_id_mask = 0000000000000100
GPGPU-Sim uArch: clock freqs: 700000000.000000:700000000.000000:700000000.000000:924000000.000000
GPGPU-Sim uArch: clock periods: 0.00000000142857142857:0.00000000142857142857:0.00000000142857142857:0.00000000108225108225
*** Initializing Memory Statistics ***
GPGPU-Sim uArch: interconnect node map (shaderID+MemID to icntID)
GPGPU-Sim uArch: Memory nodes ID start from index: 15
GPGPU-Sim uArch:    0   1   2   3   4
GPGPU-Sim uArch:    5   6   7   8   9
GPGPU-Sim uArch:   10  11  12  13  14
GPGPU-Sim uArch:   15  16  17  18  19
GPGPU-Sim uArch:   20  21  22  23  24
GPGPU-Sim uArch:   25  26
GPGPU-Sim uArch: interconnect node reverse map (icntID to shaderID+MemID)
GPGPU-Sim uArch: Memory nodes start from ID: 15
GPGPU-Sim uArch:    0   1   2   3   4
GPGPU-Sim uArch:    5   6   7   8   9
GPGPU-Sim uArch:   10  11  12  13  14
GPGPU-Sim uArch:   15  16  17  18  19
GPGPU-Sim uArch:   20  21  22  23  24
GPGPU-Sim uArch:   25  26
34d8dad98b55ee7ec7d41e3675093f3e  /code/ISPASS/NN/ispass-2009-NN
Extracting PTX file and ptxas options    1: ispass-2009-NN.1.sm_30.ptx -arch=sm_30
Extracting PTX file and ptxas options    2: ispass-2009-NN.2.sm_35.ptx -arch=sm_35
Extracting PTX file and ptxas options    3: ispass-2009-NN.3.sm_50.ptx -arch=sm_50
Extracting PTX file and ptxas options    4: ispass-2009-NN.4.sm_60.ptx -arch=sm_60
Extracting PTX file and ptxas options    5: ispass-2009-NN.5.sm_62.ptx -arch=sm_62
GPGPU-Sim uArch: performance model initialization complete.
self exe links to: /code/ISPASS/NN/ispass-2009-NN
self exe links to: /code/ISPASS/NN/ispass-2009-NN
10.1
GPGPU-Sim PTX: __cudaRegisterFatBinary, fat_cubin_handle = 1, filename=default
self exe links to: /code/ISPASS/NN/ispass-2009-NN
Running md5sum using "md5sum /code/ISPASS/NN/ispass-2009-NN "
self exe links to: /code/ISPASS/NN/ispass-2009-NN
Extracting specific PTX file named ispass-2009-NN.1.sm_30.ptx 
Extracting specific PTX file named ispass-2009-NN.2.sm_35.ptx 
Extracting specific PTX file named ispass-2009-NN.3.sm_50.ptx 
Extracting specific PTX file named ispass-2009-NN.4.sm_60.ptx 
Extracting specific PTX file named ispass-2009-NN.5.sm_62.ptx 
GPGPU-Sim PTX: __cudaRegisterFunction _Z18executeFourthLayerPfS_S_ : hostFun 0x0x401a90, fat_cubin_handle = 1
GPGPU-Sim PTX: Parsing ispass-2009-NN.1.sm_30.ptx
GPGPU-Sim PTX: allocating constant region for "kernelTemplate" from 0x100 to 0x164 (global memory space) 1
GPGPU-Sim PTX: allocating constant region for "kernelTemplate2" from 0x180 to 0x1e4 (global memory space) 2
GPGPU-Sim PTX: instruction assembly for function '_Z17executeFirstLayerPfS_S_'...   done.
GPGPU-Sim PTX: instruction assembly for function '_Z18executeSecondLayerPfS_S_'...   done.
GPGPU-Sim PTX: instruction assembly for function '_Z17executeThirdLayerPfS_S_'...   done.
GPGPU-Sim PTX: instruction assembly for function '_Z18executeFourthLayerPfS_S_'...   done.
GPGPU-Sim PTX: finished parsing EMBEDDED .ptx file ispass-2009-NN.1.sm_30.ptx
GPGPU-Sim PTX: Parsing ispass-2009-NN.2.sm_35.ptx
GPGPU-Sim PTX: Warning kernelTemplate was declared previous at ispass-2009-NN.1.sm_30.ptx:14 skipping new declaration
GPGPU-Sim PTX: Warning kernelTemplate2 was declared previous at ispass-2009-NN.1.sm_30.ptx:15 skipping new declaration
GPGPU-Sim PTX: Warning %p0 was declared previous at ispass-2009-NN.1.sm_30.ptx:23 skipping new declaration
GPGPU-Sim PTX: Warning %p1 was declared previous at ispass-2009-NN.1.sm_30.ptx:23 skipping new declaration
GPGPU-Sim PTX: Warning %p2 was declared previous at ispass-2009-NN.1.sm_30.ptx:23 skipping new declaration
GPGPU-Sim PTX: Warning %p3 was declared previous at ispass-2009-NN.1.sm_30.ptx:23 skipping new declaration
GPGPU-Sim PTX: Warning %f0 was declared previous at ispass-2009-NN.1.sm_30.ptx:24 skipping new declaration
GPGPU-Sim PTX: Warning %f1 was declared previous at ispass-2009-NN.1.sm_30.ptx:24 skipping new declaration
GPGPU-Sim PTX: Warning %f2 was declared previous at ispass-2009-NN.1.sm_30.ptx:24 skipping new declaration
GPGPU-Sim PTX: Warning %f3 was declared previous at ispass-2009-NN.1.sm_30.ptx:24 skipping new declaration
GPGPU-Sim PTX: Warning %f4 was declared previous at ispass-2009-NN.1.sm_30.ptx:24 skipping new declaration
GPGPU-Sim PTX: Warning %f5 was declared previous at ispass-2009-NN.1.sm_30.ptx:24 skipping new declaration
GPGPU-Sim PTX: Warning %f6 was declared previous at ispass-2009-NN.1.sm_30.ptx:24 skipping new declaration
GPGPU-Sim PTX: Warning %f7 was declared previous at ispass-2009-NN.1.sm_30.ptx:24 skipping new declaration
GPGPU-Sim PTX: Warning %f8 was declared previous at ispass-2009-NN.1.sm_30.ptx:24 skipping new declaration
GPGPU-Sim PTX: Warning %f9 was declared previous at ispass-2009-NN.1.sm_30.ptx:24 skipping new declaration
GPGPU-Sim PTX: Warning %f10 was declared previous at ispass-2009-NN.1.sm_30.ptx:24 skipping new declaration
GPGPU-Sim PTX: Warning %f11 was declared previous at ispass-2009-NN.1.sm_30.ptx:24 skipping new declaration
GPGPU-Sim PTX: Warning %f12 was declared previous at ispass-2009-NN.1.sm_30.ptx:24 skipping new declaration
GPGPU-Sim PTX: Warning %f13 was declared previous at ispass-2009-NN.1.sm_30.ptx:24 skipping new declaration
GPGPU-Sim PTX: Warning %f14 was declared previous at ispass-2009-NN.1.sm_30.ptx:24 skipping new declaration
GPGPU-Sim PTX: Warning %f15 was declared previous at ispass-2009-NN.1.sm_30.ptx:24 skipping new declaration
GPGPU-Sim PTX: Warning %f16 was declared previous at ispass-2009-NN.1.sm_30.ptx:24 skipping new declaration
GPGPU-Sim PTX: Warning %f17 was declared previous at ispass-2009-NN.1.sm_30.ptx:24 skipping new declaration
GPGPU-Sim PTX: Warning %f18 was declared previous at ispass-2009-NN.1.sm_30.ptx:24 skipping new declaration
GPGPU-Sim PTX: Warning %f19 was declared previous at ispass-2009-NN.1.sm_30.ptx:24 skipping new declaration
GPGPU-Sim PTX: Warning %f20 was declared previous at ispass-2009-NN.1.sm_30.ptx:24 skipping new declaration
GPGPU-Sim PTX: Warning %f21 was declared previous at ispass-2009-NN.1.sm_30.ptx:24 skipping new declaration
GPGPU-Sim PTX: Warning %f22 was declared previous at ispass-2009-NN.1.sm_30.ptx:24 skipping new declaration
GPGPU-Sim PTX: Warning %f23 was declared previous at ispass-2009-NN.1.sm_30.ptx:24 skipping new declaration
GPGPU-Sim PTX: Warning %f24 was declared previous at ispass-2009-NN.1.sm_30.ptx:24 skipping new declaration
GPGPU-Sim PTX: Warning %f25 was declared previous at ispass-2009-NN.1.sm_30.ptx:24 skipping new declaration
GPGPU-Sim PTX: Warning %f26 was declared previous at ispass-2009-NN.1.sm_30.ptx:24 skipping new declaration
GPGPU-Sim PTX: Warning %f27 was declared previous at ispass-2009-NN.1.sm_30.ptx:24 skipping new declaration
GPGPU-Sim PTX: Warning %f28 was declared previous at ispass-2009-NN.1.sm_30.ptx:24 skipping new declaration
GPGPU-Sim PTX: Warning %f29 was declared previous at ispass-2009-NN.1.sm_30.ptx:24 skipping new declaration
GPGPU-Sim PTX: Warning %f30 was declared previous at ispass-2009-NN.1.sm_30.ptx:24 skipping new declaration
GPGPU-Sim PTX: Warning %f31 was declared previous at ispass-2009-NN.1.sm_30.ptx:24 skipping new declaration
GPGPU-Sim PTX: Warning %f32 was declared previous at ispass-2009-NN.1.sm_30.ptx:24 skipping new declaration
GPGPU-Sim PTX: Warning %f33 was declared previous at ispass-2009-NN.1.sm_30.ptx:24 skipping new declaration
GPGPU-Sim PTX: Warning %f34 was declared previous at ispass-2009-NN.1.sm_30.ptx:24 skipping new declaration
GPGPU-Sim PTX: Warning %f35 was declared previous at ispass-2009-NN.1.sm_30.ptx:24 skipping new declaration
GPGPU-Sim PTX: Warning %f36 was declared previous at ispass-2009-NN.1.sm_30.ptx:24 skipping new declaration
GPGPU-Sim PTX: Warning %f37 was declared previous at ispass-2009-NN.1.sm_30.ptx:24 skipping new declaration
GPGPU-Sim PTX: Warning %f38 was declared previous at ispass-2009-NN.1.sm_30.ptx:24 skipping new declaration
GPGPU-Sim PTX: Warning %f39 was declared previous at ispass-2009-NN.1.sm_30.ptx:24 skipping new declaration
GPGPU-Sim PTX: Warning %f40 was declared previous at ispass-2009-NN.1.sm_30.ptx:24 skipping new declaration
GPGPU-Sim PTX: Warning %f41 was declared previous at ispass-2009-NN.1.sm_30.ptx:24 skipping new declaration
GPGPU-Sim PTX: Warning %f42 was declared previous at ispass-2009-NN.1.sm_30.ptx:24 skipping new declaration
GPGPU-Sim PTX: Warning %f43 was declared previous at ispass-2009-NN.1.sm_30.ptx:24 skipping new declaration
GPGPU-Sim PTX: Warning %f44 was declared previous at ispass-2009-NN.1.sm_30.ptx:24 skipping new declaration
GPGPU-Sim PTX: Warning %f45 was declared previous at ispass-2009-NN.1.sm_30.ptx:24 skipping new declaration
GPGPU-Sim PTX: Warning %f46 was declared previous at ispass-2009-NN.1.sm_30.ptx:24 skipping new declaration
GPGPU-Sim PTX: Warning %f47 was declared previous at ispass-2009-NN.1.sm_30.ptx:24 skipping new declaration
GPGPU-Sim PTX: Warning %f48 was declared previous at ispass-2009-NN.1.sm_30.ptx:24 skipping new declaration
GPGPU-Sim PTX: Warning %f49 was declared previous at ispass-2009-NN.1.sm_30.ptx:24 skipping new declaration
GPGPU-Sim PTX: Warning %f50 was declared previous at ispass-2009-NN.1.sm_30.ptx:24 skipping new declaration
GPGPU-Sim PTX: Warning %f51 was declared previous at ispass-2009-NN.1.sm_30.ptx:24 skipping new declaration
GPGPU-Sim PTX: Warning %f52 was declared previous at ispass-2009-NN.1.sm_30.ptx:24 skipping new declaration
GPGPU-Sim PTX: Warning %f53 was declared previous at ispass-2009-NN.1.sm_30.ptx:24 skipping new declaration
GPGPU-Sim PTX: Warning %f54 was declared previous at ispass-2009-NN.1.sm_30.ptx:24 skipping new declaration
GPGPU-Sim PTX: Warning %f55 was declared previous at ispass-2009-NN.1.sm_30.ptx:24 skipping new declaration
GPGPU-Sim PTX: Warning %f56 was declared previous at ispass-2009-NN.1.sm_30.ptx:24 skipping new declaration
GPGPU-Sim PTX: Warning %f57 was declared previous at ispass-2009-NN.1.sm_30.ptx:24 skipping new declaration
GPGPU-Sim PTX: Warning %f58 was declared previous at ispass-2009-NN.1.sm_30.ptx:24 skipping new declaration
GPGPU-Sim PTX: Warning %f59 was declared previous at ispass-2009-NN.1.sm_30.ptx:24 skipping new declaration
GPGPU-Sim PTX: Warning %f60 was declared previous at ispass-2009-NN.1.sm_30.ptx:24 skipping new declaration
GPGPU-Sim PTX: Warning %f61 was declared previous at ispass-2009-NN.1.sm_30.ptx:24 skipping new declaration
GPGPU-Sim PTX: Warning %f62 was declared previous at ispass-2009-NN.1.sm_30.ptx:24 skipping new declaration
GPGPU-Sim PTX: Warning %f63 was declared previous at ispass-2009-NN.1.sm_30.ptx:24 skipping new declaration
GPGPU-Sim PTX: Warning %f64 was declared previous at ispass-2009-NN.1.sm_30.ptx:24 skipping new declaration
GPGPU-Sim PTX: Warning %f65 was declared previous at ispass-2009-NN.1.sm_30.ptx:24 skipping new declaration
GPGPU-Sim PTX: Warning %f66 was declared previous at ispass-2009-NN.1.sm_30.ptx:24 skipping new declaration
GPGPU-Sim PTX: Warning %f67 was declared previous at ispass-2009-NN.1.sm_30.ptx:24 skipping new declaration
GPGPU-Sim PTX: Warning %f68 was declared previous at ispass-2009-NN.1.sm_30.ptx:24 skipping new declaration
GPGPU-Sim PTX: Warning %f69 was declared previous at ispass-2009-NN.1.sm_30.ptx:24 skipping new declaration
GPGPU-Sim PTX: Warning %f70 was declared previous at ispass-2009-NN.1.sm_30.ptx:24 skipping new declaration
GPGPU-Sim PTX: Warning %f71 was declared previous at ispass-2009-NN.1.sm_30.ptx:24 skipping new declaration
GPGPU-Sim PTX: Warning %f72 was declared previous at ispass-2009-NN.1.sm_30.ptx:24 skipping new declaration
GPGPU-Sim PTX: Warning %f73 was declared previous at ispass-2009-NN.1.sm_30.ptx:24 skipping new declaration
GPGPU-Sim PTX: Warning %f74 was declared previous at ispass-2009-NN.1.sm_30.ptx:24 skipping new declaration
GPGPU-Sim PTX: Warning %f75 was declared previous at ispass-2009-NN.1.sm_30.ptx:24 skipping new declaration
GPGPU-Sim PTX: Warning %f76 was declared previous at ispass-2009-NN.1.sm_30.ptx:24 skipping new declaration
GPGPU-Sim PTX: Warning %f77 was declared previous at ispass-2009-NN.1.sm_30.ptx:24 skipping new declaration
GPGPU-Sim PTX: Warning %f78 was declared previous at ispass-2009-NN.1.sm_30.ptx:24 skipping new declaration
GPGPU-Sim PTX: Warning %f79 was declared previous at ispass-2009-NN.1.sm_30.ptx:24 skipping new declaration
GPGPU-Sim PTX: Warning %f80 was declared previous at ispass-2009-NN.1.sm_30.ptx:24 skipping new declaration
GPGPU-Sim PTX: Warning %f81 was declared previous at ispass-2009-NN.1.sm_30.ptx:24 skipping new declaration
GPGPU-Sim PTX: Warning %f82 was declared previous at ispass-2009-NN.1.sm_30.ptx:24 skipping new declaration
GPGPU-Sim PTX: Warning %f83 was declared previous at ispass-2009-NN.1.sm_30.ptx:24 skipping new declaration
GPGPU-Sim PTX: Warning %f84 was declared previous at ispass-2009-NN.1.sm_30.ptx:24 skipping new declaration
GPGPU-Sim PTX: Warning %f85 was declared previous at ispass-2009-NN.1.sm_30.ptx:24 skipping new declaration
GPGPU-Sim PTX: Warning %f86 was declared previous at ispass-2009-NN.1.sm_30.ptx:24 skipping new declaration
GPGPU-Sim PTX: Warning %f87 was declared previous at ispass-2009-NN.1.sm_30.ptx:24 skipping new declaration
GPGPU-Sim PTX: Warning %f88 was declared previous at ispass-2009-NN.1.sm_30.ptx:24 skipping new declaration
GPGPU-Sim PTX: Warning %f89 was declared previous at ispass-2009-NN.1.sm_30.ptx:24 skipping new declaration
GPGPU-Sim PTX: Warning %f90 was declared previous at ispass-2009-NN.1.sm_30.ptx:24 skipping new declaration
GPGPU-Sim PTX: Warning %f91 was declared previous at ispass-2009-NN.1.sm_30.ptx:24 skipping new declaration
GPGPU-Sim PTX: Warning %f92 was declared previous at ispass-2009-NN.1.sm_30.ptx:24 skipping new declaration
GPGPU-Sim PTX: Warning %f93 was declared previous at ispass-2009-NN.1.sm_30.ptx:24 skipping new declaration
GPGPU-Sim PTX: Warning %f94 was declared previous at ispass-2009-NN.1.sm_30.ptx:24 skipping new declaration
GPGPU-Sim PTX: Warning %f95 was declared previous at ispass-2009-NN.1.sm_30.ptx:24 skipping new declaration
GPGPU-Sim PTX: Warning %f96 was declared previous at ispass-2009-NN.1.sm_30.ptx:24 skipping new declaration
GPGPU-Sim PTX: Warning %f97 was declared previous at ispass-2009-NN.1.sm_30.ptx:24 skipping new declaration
GPGPU-Sim PTX: Warning %f98 was declared previous at ispass-2009-NN.1.sm_30.ptx:24 skipping new declaration
GPGPU-Sim PTX: Warning %f99 was declared previous at ispass-2009-NN.1.sm_30.ptx:24 skipping new declaration
GPGPU-Sim PTX: Warning %f100 was declared previous at ispass-2009-NN.1.sm_30.ptx:24 skipping new declaration
GPGPU-Sim PTX: Warning %f101 was declared previous at ispass-2009-NN.1.sm_30.ptx:24 skipping new declaration
GPGPU-Sim PTX: Warning %f102 was declared previous at ispass-2009-NN.1.sm_30.ptx:24 skipping new declaration
GPGPU-Sim PTX: Warning %f103 was declared previous at ispass-2009-NN.1.sm_30.ptx:24 skipping new declaration
GPGPU-Sim PTX: Warning %f104 was declared previous at ispass-2009-NN.1.sm_30.ptx:24 skipping new declaration
GPGPU-Sim PTX: Warning %f105 was declared previous at ispass-2009-NN.1.sm_30.ptx:24 skipping new declaration
GPGPU-Sim PTX: Warning %f106 was declared previous at ispass-2009-NN.1.sm_30.ptx:24 skipping new declaration
GPGPU-Sim PTX: Warning %f107 was declared previous at ispass-2009-NN.1.sm_30.ptx:24 skipping new declaration
GPGPU-Sim PTX: Warning %f108 was declared previous at ispass-2009-NN.1.sm_30.ptx:24 skipping new declaration
GPGPU-Sim PTX: Warning %f109 was declared previous at ispass-2009-NN.1.sm_30.ptx:24 skipping new declaration
GPGPU-Sim PTX: Warning %f110 was declared previous at ispass-2009-NN.1.sm_30.ptx:24 skipping new declaration
GPGPU-Sim PTX: Warning %r0 was declared previous at ispass-2009-NN.1.sm_30.ptx:25 skipping new declaration
GPGPU-Sim PTX: Warning %r1 was declared previous at ispass-2009-NN.1.sm_30.ptx:25 skipping new declaration
GPGPU-Sim PTX: Warning %r2 was declared previous at ispass-2009-NN.1.sm_30.ptx:25 skipping new declaration
GPGPU-Sim PTX: Warning %r3 was declared previous at ispass-2009-NN.1.sm_30.ptx:25 skipping new declaration
GPGPU-Sim PTX: Warning %r4 was declared previous at ispass-2009-NN.1.sm_30.ptx:25 skipping new declaration
GPGPU-Sim PTX: Warning %r5 was declared previous at ispass-2009-NN.1.sm_30.ptx:25 skipping new declaration
GPGPU-Sim PTX: Warning %r6 was declared previous at ispass-2009-NN.1.sm_30.ptx:25 skipping new declaration
GPGPU-Sim PTX: Warning %r7 was declared previous at ispass-2009-NN.1.sm_30.ptx:25 skipping new declaration
GPGPU-Sim PTX: Warning %r8 was declared previous at ispass-2009-NN.1.sm_30.ptx:25 skipping new declaration
GPGPU-Sim PTX: Warning %r9 was declared previous at ispass-2009-NN.1.sm_30.ptx:25 skipping new declaration
GPGPU-Sim PTX: Warning %r10 was declared previous at ispass-2009-NN.1.sm_30.ptx:25 skipping new declaration
GPGPU-Sim PTX: Warning %r11 was declared previous at ispass-2009-NN.1.sm_30.ptx:25 skipping new declaration
GPGPU-Sim PTX: Warning %r12 was declared previous at ispass-2009-NN.1.sm_30.ptx:25 skipping new declaration
GPGPU-Sim PTX: Warning %r13 was declared previous at ispass-2009-NN.1.sm_30.ptx:25 skipping new declaration
GPGPU-Sim PTX: Warning %r14 was declared previous at ispass-2009-NN.1.sm_30.ptx:25 skipping new declaration
GPGPU-Sim PTX: Warning %r15 was declared previous at ispass-2009-NN.1.sm_30.ptx:25 skipping new declaration
GPGPU-Sim PTX: Warning %r16 was declared previous at ispass-2009-NN.1.sm_30.ptx:25 skipping new declaration
GPGPU-Sim PTX: Warning %r17 was declared previous at ispass-2009-NN.1.sm_30.ptx:25 skipping new declaration
GPGPU-Sim PTX: Warning %r18 was declared previous at ispass-2009-NN.1.sm_30.ptx:25 skipping new declaration
GPGPU-Sim PTX: Warning %r19 was declared previous at ispass-2009-NN.1.sm_30.ptx:25 skipping new declaration
GPGPU-Sim PTX: Warning %r20 was declared previous at ispass-2009-NN.1.sm_30.ptx:25 skipping new declaration
GPGPU-Sim PTX: Warning %r21 was declared previous at ispass-2009-NN.1.sm_30.ptx:25 skipping new declaration
GPGPU-Sim PTX: Warning %r22 was declared previous at ispass-2009-NN.1.sm_30.ptx:25 skipping new declaration
GPGPU-Sim PTX: Warning %r23 was declared previous at ispass-2009-NN.1.sm_30.ptx:25 skipping new declaration
GPGPU-Sim PTX: Warning %r24 was declared previous at ispass-2009-NN.1.sm_30.ptx:25 skipping new declaration
GPGPU-Sim PTX: Warning %r25 was declared previous at ispass-2009-NN.1.sm_30.ptx:25 skipping new declaration
GPGPU-Sim PTX: Warning %r26 was declared previous at ispass-2009-NN.1.sm_30.ptx:25 skipping new declaration
GPGPU-Sim PTX: Warning %r27 was declared previous at ispass-2009-NN.1.sm_30.ptx:25 skipping new declaration
GPGPU-Sim PTX: Warning %r28 was declared previous at ispass-2009-NN.1.sm_30.ptx:25 skipping new declaration
GPGPU-Sim PTX: Warning %r29 was declared previous at ispass-2009-NN.1.sm_30.ptx:25 skipping new declaration
GPGPU-Sim PTX: Warning %r30 was declared previous at ispass-2009-NN.1.sm_30.ptx:25 skipping new declaration
GPGPU-Sim PTX: Warning %r31 was declared previous at ispass-2009-NN.1.sm_30.ptx:25 skipping new declaration
GPGPU-Sim PTX: Warning %r32 was declared previous at ispass-2009-NN.1.sm_30.ptx:25 skipping new declaration
GPGPU-Sim PTX: Warning %r33 was declared previous at ispass-2009-NN.1.sm_30.ptx:25 skipping new declaration
GPGPU-Sim PTX: Warning %r34 was declared previous at ispass-2009-NN.1.sm_30.ptx:25 skipping new declaration
GPGPU-Sim PTX: Warning %r35 was declared previous at ispass-2009-NN.1.sm_30.ptx:25 skipping new declaration
GPGPU-Sim PTX: Warning %r36 was declared previous at ispass-2009-NN.1.sm_30.ptx:25 skipping new declaration
GPGPU-Sim PTX: Warning %r37 was declared previous at ispass-2009-NN.1.sm_30.ptx:25 skipping new declaration
GPGPU-Sim PTX: Warning %r38 was declared previous at ispass-2009-NN.1.sm_30.ptx:25 skipping new declaration
GPGPU-Sim PTX: Warning %r39 was declared previous at ispass-2009-NN.1.sm_30.ptx:25 skipping new declaration
GPGPU-Sim PTX: Warning %r40 was declared previous at ispass-2009-NN.1.sm_30.ptx:25 skipping new declaration
GPGPU-Sim PTX: Warning %r41 was declared previous at ispass-2009-NN.1.sm_30.ptx:25 skipping new declaration
GPGPU-Sim PTX: Warning %r42 was declared previous at ispass-2009-NN.1.sm_30.ptx:25 skipping new declaration
GPGPU-Sim PTX: Warning %r43 was declared previous at ispass-2009-NN.1.sm_30.ptx:25 skipping new declaration
GPGPU-Sim PTX: Warning %r44 was declared previous at ispass-2009-NN.1.sm_30.ptx:25 skipping new declaration
GPGPU-Sim PTX: Warning %r45 was declared previous at ispass-2009-NN.1.sm_30.ptx:25 skipping new declaration
GPGPU-Sim PTX: Warning %r46 was declared previous at ispass-2009-NN.1.sm_30.ptx:25 skipping new declaration
GPGPU-Sim PTX: Warning %r47 was declared previous at ispass-2009-NN.1.sm_30.ptx:25 skipping new declaration
GPGPU-Sim PTX: Warning %r48 was declared previous at ispass-2009-NN.1.sm_30.ptx:25 skipping new declaration
GPGPU-Sim PTX: Warning %r49 was declared previous at ispass-2009-NN.1.sm_30.ptx:25 skipping new declaration
GPGPU-Sim PTX: Warning %r50 was declared previous at ispass-2009-NN.1.sm_30.ptx:25 skipping new declaration
GPGPU-Sim PTX: Warning %r51 was declared previous at ispass-2009-NN.1.sm_30.ptx:25 skipping new declaration
GPGPU-Sim PTX: Warning %r52 was declared previous at ispass-2009-NN.1.sm_30.ptx:25 skipping new declaration
GPGPU-Sim PTX: Warning %r53 was declared previous at ispass-2009-NN.1.sm_30.ptx:25 skipping new declaration
GPGPU-Sim PTX: Warning %r54 was declared previous at ispass-2009-NN.1.sm_30.ptx:25 skipping new declaration
GPGPU-Sim PTX: Warning %r55 was declared previous at ispass-2009-NN.1.sm_30.ptx:25 skipping new declaration
GPGPU-Sim PTX: Warning %r56 was declared previous at ispass-2009-NN.1.sm_30.ptx:25 skipping new declaration
GPGPU-Sim PTX: Warning %r57 was declared previous at ispass-2009-NN.1.sm_30.ptx:25 skipping new declaration
GPGPU-Sim PTX: Warning %r58 was declared previous at ispass-2009-NN.1.sm_30.ptx:25 skipping new declaration
GPGPU-Sim PTX: Warning %r59 was declared previous at ispass-2009-NN.1.sm_30.ptx:25 skipping new declaration
GPGPU-Sim PTX: Warning %r60 was declared previous at ispass-2009-NN.1.sm_30.ptx:25 skipping new declaration
GPGPU-Sim PTX: Warning %r61 was declared previous at ispass-2009-NN.1.sm_30.ptx:25 skipping new declaration
GPGPU-Sim PTX: Warning %r62 was declared previous at ispass-2009-NN.1.sm_30.ptx:25 skipping new declaration
GPGPU-Sim PTX: Warning %r63 was declared previous at ispass-2009-NN.1.sm_30.ptx:25 skipping new declaration
GPGPU-Sim PTX: Warning %r64 was declared previous at ispass-2009-NN.1.sm_30.ptx:25 skipping new declaration
GPGPU-Sim PTX: Warning %r65 was declared previous at ispass-2009-NN.1.sm_30.ptx:25 skipping new declaration
GPGPU-Sim PTX: Warning %r66 was declared previous at ispass-2009-NN.1.sm_30.ptx:25 skipping new declaration
GPGPU-Sim PTX: Warning %fd0 was declared previous at ispass-2009-NN.1.sm_30.ptx:26 skipping new declaration
GPGPU-Sim PTX: Warning %fd1 was declared previous at ispass-2009-NN.1.sm_30.ptx:26 skipping new declaration
GPGPU-Sim PTX: Warning %fd2 was declared previous at ispass-2009-NN.1.sm_30.ptx:26 skipping new declaration
GPGPU-Sim PTX: Warning %fd3 was declared previous at ispass-2009-NN.1.sm_30.ptx:26 skipping new declaration
GPGPU-Sim PTX: Warning %fd4 was declared previous at ispass-2009-NN.1.sm_30.ptx:26 skipping new declaration
GPGPU-Sim PTX: Warning %rd0 was declared previous at ispass-2009-NN.1.sm_30.ptx:27 skipping new declaration
GPGPU-Sim PTX: Warning %rd1 was declared previous at ispass-2009-NN.1.sm_30.ptx:27 skipping new declaration
GPGPU-Sim PTX: Warning %rd2 was declared previous at ispass-2009-NN.1.sm_30.ptx:27 skipping new declaration
GPGPU-Sim PTX: Warning %rd3 was declared previous at ispass-2009-NN.1.sm_30.ptx:27 skipping new declaration
GPGPU-Sim PTX: Warning %rd4 was declared previous at ispass-2009-NN.1.sm_30.ptx:27 skipping new declaration
GPGPU-Sim PTX: Warning %rd5 was declared previous at ispass-2009-NN.1.sm_30.ptx:27 skipping new declaration
GPGPU-Sim PTX: Warning %rd6 was declared previous at ispass-2009-NN.1.sm_30.ptx:27 skipping new declaration
GPGPU-Sim PTX: Warning %rd7 was declared previous at ispass-2009-NN.1.sm_30.ptx:27 skipping new declaration
GPGPU-Sim PTX: Warning %rd8 was declared previous at ispass-2009-NN.1.sm_30.ptx:27 skipping new declaration
GPGPU-Sim PTX: Warning %rd9 was declared previous at ispass-2009-NN.1.sm_30.ptx:27 skipping new declaration
GPGPU-Sim PTX: Warning %rd10 was declared previous at ispass-2009-NN.1.sm_30.ptx:27 skipping new declaration
GPGPU-Sim PTX: Warning %rd11 was declared previous at ispass-2009-NN.1.sm_30.ptx:27 skipping new declaration
GPGPU-Sim PTX: Warning %rd12 was declared previous at ispass-2009-NN.1.sm_30.ptx:27 skipping new declaration
GPGPU-Sim PTX: Warning %rd13 was declared previous at ispass-2009-NN.1.sm_30.ptx:27 skipping new declaration
GPGPU-Sim PTX: Warning %rd14 was declared previous at ispass-2009-NN.1.sm_30.ptx:27 skipping new declaration
GPGPU-Sim PTX: Warning %rd15 was declared previous at ispass-2009-NN.1.sm_30.ptx:27 skipping new declaration
GPGPU-Sim PTX: Warning %rd16 was declared previous at ispass-2009-NN.1.sm_30.ptx:27 skipping new declaration
GPGPU-Sim PTX: Warning %rd17 was declared previous at ispass-2009-NN.1.sm_30.ptx:27 skipping new declaration
GPGPU-Sim PTX: Warning %rd18 was declared previous at ispass-2009-NN.1.sm_30.ptx:27 skipping new declaration
GPGPU-Sim PTX: Warning %rd19 was declared previous at ispass-2009-NN.1.sm_30.ptx:27 skipping new declaration
GPGPU-Sim PTX: Warning %rd20 was declared previous at ispass-2009-NN.1.sm_30.ptx:27 skipping new declaration
GPGPU-Sim PTX: Warning %rd21 was declared previous at ispass-2009-NN.1.sm_30.ptx:27 skipping new declaration
GPGPU-Sim PTX: Warning %rd22 was declared previous at ispass-2009-NN.1.sm_30.ptx:27 skipping new declaration
GPGPU-Sim PTX: Warning %rd23 was declared previous at ispass-2009-NN.1.sm_30.ptx:27 skipping new declaration
GPGPU-Sim PTX: Warning %rd24 was declared previous at ispass-2009-NN.1.sm_30.ptx:27 skipping new declaration
GPGPU-Sim PTX: Warning %rd25 was declared previous at ispass-2009-NN.1.sm_30.ptx:27 skipping new declaration
GPGPU-Sim PTX: Warning %rd26 was declared previous at ispass-2009-NN.1.sm_30.ptx:27 skipping new declaration
GPGPU-Sim PTX: Warning %rd27 was declared previous at ispass-2009-NN.1.sm_30.ptx:27 skipping new declaration
GPGPU-Sim PTX: Warning %rd28 was declared previous at ispass-2009-NN.1.sm_30.ptx:27 skipping new declaration
GPGPU-Sim PTX: Warning %rd29 was declared previous at ispass-2009-NN.1.sm_30.ptx:27 skipping new declaration
GPGPU-Sim PTX: Warning %rd30 was declared previous at ispass-2009-NN.1.sm_30.ptx:27 skipping new declaration
GPGPU-Sim PTX: Warning %rd31 was declared previous at ispass-2009-NN.1.sm_30.ptx:27 skipping new declaration
GPGPU-Sim PTX: Warning %rd32 was declared previous at ispass-2009-NN.1.sm_30.ptx:27 skipping new declaration
GPGPU-Sim PTX: Warning %rd33 was declared previous at ispass-2009-NN.1.sm_30.ptx:27 skipping new declaration
GPGPU-Sim PTX: Warning %rd34 was declared previous at ispass-2009-NN.1.sm_30.ptx:27 skipping new declaration
GPGPU-Sim PTX: Warning %rd35 was declared previous at ispass-2009-NN.1.sm_30.ptx:27 skipping new declaration
GPGPU-Sim PTX: Warning %rd36 was declared previous at ispass-2009-NN.1.sm_30.ptx:27 skipping new declaration
GPGPU-Sim PTX: Warning %rd37 was declared previous at ispass-2009-NN.1.sm_30.ptx:27 skipping new declaration
GPGPU-Sim PTX: Warning %rd38 was declared previous at ispass-2009-NN.1.sm_30.ptx:27 skipping new declaration
GPGPU-Sim PTX: Warning %rd39 was declared previous at ispass-2009-NN.1.sm_30.ptx:27 skipping new declaration
GPGPU-Sim PTX: Warning %rd40 was declared previous at ispass-2009-NN.1.sm_30.ptx:27 skipping new declaration
GPGPU-Sim PTX: Warning %rd41 was declared previous at ispass-2009-NN.1.sm_30.ptx:27 skipping new declaration
GPGPU-Sim PTX: Warning %rd42 was declared previous at ispass-2009-NN.1.sm_30.ptx:27 skipping new declaration
GPGPU-Sim PTX: Warning %rd43 was declared previous at ispass-2009-NN.1.sm_30.ptx:27 skipping new declaration
GPGPU-Sim PTX: Warning %rd44 was declared previous at ispass-2009-NN.1.sm_30.ptx:27 skipping new declaration
GPGPU-Sim PTX: Warning %rd45 was declared previous at ispass-2009-NN.1.sm_30.ptx:27 skipping new declaration
GPGPU-Sim PTX: Warning %rd46 was declared previous at ispass-2009-NN.1.sm_30.ptx:27 skipping new declaration
GPGPU-Sim PTX: Warning %rd47 was declared previous at ispass-2009-NN.1.sm_30.ptx:27 skipping new declaration
GPGPU-Sim PTX: Warning %rd48 was declared previous at ispass-2009-NN.1.sm_30.ptx:27 skipping new declaration
GPGPU-Sim PTX: Warning %rd49 was declared previous at ispass-2009-NN.1.sm_30.ptx:27 skipping new declaration
GPGPU-Sim PTX: Warning %rd50 was declared previous at ispass-2009-NN.1.sm_30.ptx:27 skipping new declaration
GPGPU-Sim PTX: Warning %rd51 was declared previous at ispass-2009-NN.1.sm_30.ptx:27 skipping new declaration
GPGPU-Sim PTX: Warning %rd52 was declared previous at ispass-2009-NN.1.sm_30.ptx:27 skipping new declaration
GPGPU-Sim PTX: Warning %rd53 was declared previous at ispass-2009-NN.1.sm_30.ptx:27 skipping new declaration
GPGPU-Sim PTX: Warning %rd54 was declared previous at ispass-2009-NN.1.sm_30.ptx:27 skipping new declaration
GPGPU-Sim PTX: Warning %rd55 was declared previous at ispass-2009-NN.1.sm_30.ptx:27 skipping new declaration
GPGPU-Sim PTX: Warning %rd56 was declared previous at ispass-2009-NN.1.sm_30.ptx:27 skipping new declaration
GPGPU-Sim PTX: Warning %rd57 was declared previous at ispass-2009-NN.1.sm_30.ptx:27 skipping new declaration
GPGPU-Sim PTX: Warning %rd58 was declared previous at ispass-2009-NN.1.sm_30.ptx:27 skipping new declaration
GPGPU-Sim PTX: Warning %rd59 was declared previous at ispass-2009-NN.1.sm_30.ptx:27 skipping new declaration
GPGPU-Sim PTX: Warning %rd60 was declared previous at ispass-2009-NN.1.sm_30.ptx:27 skipping new declaration
GPGPU-Sim PTX: instruction assembly for function '_Z17executeFirstLayerPfS_S_'...   done.
GPGPU-Sim PTX: Warning %p0 was declared previous at ispass-2009-NN.1.sm_30.ptx:293 skipping new declaration
GPGPU-Sim PTX: Warning %p1 was declared previous at ispass-2009-NN.1.sm_30.ptx:293 skipping new declaration
GPGPU-Sim PTX: Warning %p2 was declared previous at ispass-2009-NN.1.sm_30.ptx:293 skipping new declaration
GPGPU-Sim PTX: Warning %p3 was declared previous at ispass-2009-NN.1.sm_30.ptx:293 skipping new declaration
GPGPU-Sim PTX: Warning %p4 was declared previous at ispass-2009-NN.1.sm_30.ptx:293 skipping new declaration
GPGPU-Sim PTX: Warning %f0 was declared previous at ispass-2009-NN.1.sm_30.ptx:294 skipping new declaration
GPGPU-Sim PTX: Warning %f1 was declared previous at ispass-2009-NN.1.sm_30.ptx:294 skipping new declaration
GPGPU-Sim PTX: Warning %f2 was declared previous at ispass-2009-NN.1.sm_30.ptx:294 skipping new declaration
GPGPU-Sim PTX: Warning %f3 was declared previous at ispass-2009-NN.1.sm_30.ptx:294 skipping new declaration
GPGPU-Sim PTX: Warning %f4 was declared previous at ispass-2009-NN.1.sm_30.ptx:294 skipping new declaration
GPGPU-Sim PTX: Warning %f5 was declared previous at ispass-2009-NN.1.sm_30.ptx:294 skipping new declaration
GPGPU-Sim PTX: Warning %f6 was declared previous at ispass-2009-NN.1.sm_30.ptx:294 skipping new declaration
GPGPU-Sim PTX: Warning %f7 was declared previous at ispass-2009-NN.1.sm_30.ptx:294 skipping new declaration
GPGPU-Sim PTX: Warning %f8 was declared previous at ispass-2009-NN.1.sm_30.ptx:294 skipping new declaration
GPGPU-Sim PTX: Warning %f9 was declared previous at ispass-2009-NN.1.sm_30.ptx:294 skipping new declaration
GPGPU-Sim PTX: Warning %f10 was declared previous at ispass-2009-NN.1.sm_30.ptx:294 skipping new declaration
GPGPU-Sim PTX: Warning %f11 was declared previous at ispass-2009-NN.1.sm_30.ptx:294 skipping new declaration
GPGPU-Sim PTX: Warning %f12 was declared previous at ispass-2009-NN.1.sm_30.ptx:294 skipping new declaration
GPGPU-Sim PTX: Warning %f13 was declared previous at ispass-2009-NN.1.sm_30.ptx:294 skipping new declaration
GPGPU-Sim PTX: Warning %f14 was declared previous at ispass-2009-NN.1.sm_30.ptx:294 skipping new declaration
GPGPU-Sim PTX: Warning %f15 was declared previous at ispass-2009-NN.1.sm_30.ptx:294 skipping new declaration
GPGPU-Sim PTX: Warning %f16 was declared previous at ispass-2009-NN.1.sm_30.ptx:294 skipping new declaration
GPGPU-Sim PTX: Warning %f17 was declared previous at ispass-2009-NN.1.sm_30.ptx:294 skipping new declaration
GPGPU-Sim PTX: Warning %f18 was declared previous at ispass-2009-NN.1.sm_30.ptx:294 skipping new declaration
GPGPU-Sim PTX: Warning %f19 was declared previous at ispass-2009-NN.1.sm_30.ptx:294 skipping new declaration
GPGPU-Sim PTX: Warning %f20 was declared previous at ispass-2009-NN.1.sm_30.ptx:294 skipping new declaration
GPGPU-Sim PTX: Warning %f21 was declared previous at ispass-2009-NN.1.sm_30.ptx:294 skipping new declaration
GPGPU-Sim PTX: Warning %f22 was declared previous at ispass-2009-NN.1.sm_30.ptx:294 skipping new declaration
GPGPU-Sim PTX: Warning %f23 was declared previous at ispass-2009-NN.1.sm_30.ptx:294 skipping new declaration
GPGPU-Sim PTX: Warning %f24 was declared previous at ispass-2009-NN.1.sm_30.ptx:294 skipping new declaration
GPGPU-Sim PTX: Warning %f25 was declared previous at ispass-2009-NN.1.sm_30.ptx:294 skipping new declaration
GPGPU-Sim PTX: Warning %f26 was declared previous at ispass-2009-NN.1.sm_30.ptx:294 skipping new declaration
GPGPU-Sim PTX: Warning %f27 was declared previous at ispass-2009-NN.1.sm_30.ptx:294 skipping new declaration
GPGPU-Sim PTX: Warning %f28 was declared previous at ispass-2009-NN.1.sm_30.ptx:294 skipping new declaration
GPGPU-Sim PTX: Warning %f29 was declared previous at ispass-2009-NN.1.sm_30.ptx:294 skipping new declaration
GPGPU-Sim PTX: Warning %f30 was declared previous at ispass-2009-NN.1.sm_30.ptx:294 skipping new declaration
GPGPU-Sim PTX: Warning %f31 was declared previous at ispass-2009-NN.1.sm_30.ptx:294 skipping new declaration
GPGPU-Sim PTX: Warning %f32 was declared previous at ispass-2009-NN.1.sm_30.ptx:294 skipping new declaration
GPGPU-Sim PTX: Warning %f33 was declared previous at ispass-2009-NN.1.sm_30.ptx:294 skipping new declaration
GPGPU-Sim PTX: Warning %f34 was declared previous at ispass-2009-NN.1.sm_30.ptx:294 skipping new declaration
GPGPU-Sim PTX: Warning %f35 was declared previous at ispass-2009-NN.1.sm_30.ptx:294 skipping new declaration
GPGPU-Sim PTX: Warning %f36 was declared previous at ispass-2009-NN.1.sm_30.ptx:294 skipping new declaration
GPGPU-Sim PTX: Warning %f37 was declared previous at ispass-2009-NN.1.sm_30.ptx:294 skipping new declaration
GPGPU-Sim PTX: Warning %f38 was declared previous at ispass-2009-NN.1.sm_30.ptx:294 skipping new declaration
GPGPU-Sim PTX: Warning %f39 was declared previous at ispass-2009-NN.1.sm_30.ptx:294 skipping new declaration
GPGPU-Sim PTX: Warning %f40 was declared previous at ispass-2009-NN.1.sm_30.ptx:294 skipping new declaration
GPGPU-Sim PTX: Warning %f41 was declared previous at ispass-2009-NN.1.sm_30.ptx:294 skipping new declaration
GPGPU-Sim PTX: Warning %f42 was declared previous at ispass-2009-NN.1.sm_30.ptx:294 skipping new declaration
GPGPU-Sim PTX: Warning %f43 was declared previous at ispass-2009-NN.1.sm_30.ptx:294 skipping new declaration
GPGPU-Sim PTX: Warning %f44 was declared previous at ispass-2009-NN.1.sm_30.ptx:294 skipping new declaration
GPGPU-Sim PTX: Warning %f45 was declared previous at ispass-2009-NN.1.sm_30.ptx:294 skipping new declaration
GPGPU-Sim PTX: Warning %f46 was declared previous at ispass-2009-NN.1.sm_30.ptx:294 skipping new declaration
GPGPU-Sim PTX: Warning %f47 was declared previous at ispass-2009-NN.1.sm_30.ptx:294 skipping new declaration
GPGPU-Sim PTX: Warning %f48 was declared previous at ispass-2009-NN.1.sm_30.ptx:294 skipping new declaration
GPGPU-Sim PTX: Warning %f49 was declared previous at ispass-2009-NN.1.sm_30.ptx:294 skipping new declaration
GPGPU-Sim PTX: Warning %f50 was declared previous at ispass-2009-NN.1.sm_30.ptx:294 skipping new declaration
GPGPU-Sim PTX: Warning %f51 was declared previous at ispass-2009-NN.1.sm_30.ptx:294 skipping new declaration
GPGPU-Sim PTX: Warning %f52 was declared previous at ispass-2009-NN.1.sm_30.ptx:294 skipping new declaration
GPGPU-Sim PTX: Warning %f53 was declared previous at ispass-2009-NN.1.sm_30.ptx:294 skipping new declaration
GPGPU-Sim PTX: Warning %f54 was declared previous at ispass-2009-NN.1.sm_30.ptx:294 skipping new declaration
GPGPU-Sim PTX: Warning %f55 was declared previous at ispass-2009-NN.1.sm_30.ptx:294 skipping new declaration
GPGPU-Sim PTX: Warning %r0 was declared previous at ispass-2009-NN.1.sm_30.ptx:295 skipping new declaration
GPGPU-Sim PTX: Warning %r1 was declared previous at ispass-2009-NN.1.sm_30.ptx:295 skipping new declaration
GPGPU-Sim PTX: Warning %r2 was declared previous at ispass-2009-NN.1.sm_30.ptx:295 skipping new declaration
GPGPU-Sim PTX: Warning %r3 was declared previous at ispass-2009-NN.1.sm_30.ptx:295 skipping new declaration
GPGPU-Sim PTX: Warning %r4 was declared previous at ispass-2009-NN.1.sm_30.ptx:295 skipping new declaration
GPGPU-Sim PTX: Warning %r5 was declared previous at ispass-2009-NN.1.sm_30.ptx:295 skipping new declaration
GPGPU-Sim PTX: Warning %r6 was declared previous at ispass-2009-NN.1.sm_30.ptx:295 skipping new declaration
GPGPU-Sim PTX: Warning %r7 was declared previous at ispass-2009-NN.1.sm_30.ptx:295 skipping new declaration
GPGPU-Sim PTX: Warning %r8 was declared previous at ispass-2009-NN.1.sm_30.ptx:295 skipping new declaration
GPGPU-Sim PTX: Warning %r9 was declared previous at ispass-2009-NN.1.sm_30.ptx:295 skipping new declaration
GPGPU-Sim PTX: Warning %r10 was declared previous at ispass-2009-NN.1.sm_30.ptx:295 skipping new declaration
GPGPU-Sim PTX: Warning %r11 was declared previous at ispass-2009-NN.1.sm_30.ptx:295 skipping new declaration
GPGPU-Sim PTX: Warning %r12 was declared previous at ispass-2009-NN.1.sm_30.ptx:295 skipping new declaration
GPGPU-Sim PTX: Warning %r13 was declared previous at ispass-2009-NN.1.sm_30.ptx:295 skipping new declaration
GPGPU-Sim PTX: Warning %r14 was declared previous at ispass-2009-NN.1.sm_30.ptx:295 skipping new declaration
GPGPU-Sim PTX: Warning %r15 was declared previous at ispass-2009-NN.1.sm_30.ptx:295 skipping new declaration
GPGPU-Sim PTX: Warning %r16 was declared previous at ispass-2009-NN.1.sm_30.ptx:295 skipping new declaration
GPGPU-Sim PTX: Warning %r17 was declared previous at ispass-2009-NN.1.sm_30.ptx:295 skipping new declaration
GPGPU-Sim PTX: Warning %r18 was declared previous at ispass-2009-NN.1.sm_30.ptx:295 skipping new declaration
GPGPU-Sim PTX: Warning %r19 was declared previous at ispass-2009-NN.1.sm_30.ptx:295 skipping new declaration
GPGPU-Sim PTX: Warning %r20 was declared previous at ispass-2009-NN.1.sm_30.ptx:295 skipping new declaration
GPGPU-Sim PTX: Warning %r21 was declared previous at ispass-2009-NN.1.sm_30.ptx:295 skipping new declaration
GPGPU-Sim PTX: Warning %r22 was declared previous at ispass-2009-NN.1.sm_30.ptx:295 skipping new declaration
GPGPU-Sim PTX: Warning %r23 was declared previous at ispass-2009-NN.1.sm_30.ptx:295 skipping new declaration
GPGPU-Sim PTX: Warning %r24 was declared previous at ispass-2009-NN.1.sm_30.ptx:295 skipping new declaration
GPGPU-Sim PTX: Warning %r25 was declared previous at ispass-2009-NN.1.sm_30.ptx:295 skipping new declaration
GPGPU-Sim PTX: Warning %r26 was declared previous at ispass-2009-NN.1.sm_30.ptx:295 skipping new declaration
GPGPU-Sim PTX: Warning %r27 was declared previous at ispass-2009-NN.1.sm_30.ptx:295 skipping new declaration
GPGPU-Sim PTX: Warning %r28 was declared previous at ispass-2009-NN.1.sm_30.ptx:295 skipping new declaration
GPGPU-Sim PTX: Warning %r29 was declared previous at ispass-2009-NN.1.sm_30.ptx:295 skipping new declaration
GPGPU-Sim PTX: Warning %r30 was declared previous at ispass-2009-NN.1.sm_30.ptx:295 skipping new declaration
GPGPU-Sim PTX: Warning %fd0 was declared previous at ispass-2009-NN.1.sm_30.ptx:296 skipping new declaration
GPGPU-Sim PTX: Warning %fd1 was declared previous at ispass-2009-NN.1.sm_30.ptx:296 skipping new declaration
GPGPU-Sim PTX: Warning %fd2 was declared previous at ispass-2009-NN.1.sm_30.ptx:296 skipping new declaration
GPGPU-Sim PTX: Warning %fd3 was declared previous at ispass-2009-NN.1.sm_30.ptx:296 skipping new declaration
GPGPU-Sim PTX: Warning %fd4 was declared previous at ispass-2009-NN.1.sm_30.ptx:296 skipping new declaration
GPGPU-Sim PTX: Warning %rd0 was declared previous at ispass-2009-NN.1.sm_30.ptx:297 skipping new declaration
GPGPU-Sim PTX: Warning %rd1 was declared previous at ispass-2009-NN.1.sm_30.ptx:297 skipping new declaration
GPGPU-Sim PTX: Warning %rd2 was declared previous at ispass-2009-NN.1.sm_30.ptx:297 skipping new declaration
GPGPU-Sim PTX: Warning %rd3 was declared previous at ispass-2009-NN.1.sm_30.ptx:297 skipping new declaration
GPGPU-Sim PTX: Warning %rd4 was declared previous at ispass-2009-NN.1.sm_30.ptx:297 skipping new declaration
GPGPU-Sim PTX: Warning %rd5 was declared previous at ispass-2009-NN.1.sm_30.ptx:297 skipping new declaration
GPGPU-Sim PTX: Warning %rd6 was declared previous at ispass-2009-NN.1.sm_30.ptx:297 skipping new declaration
GPGPU-Sim PTX: Warning %rd7 was declared previous at ispass-2009-NN.1.sm_30.ptx:297 skipping new declaration
GPGPU-Sim PTX: Warning %rd8 was declared previous at ispass-2009-NN.1.sm_30.ptx:297 skipping new declaration
GPGPU-Sim PTX: Warning %rd9 was declared previous at ispass-2009-NN.1.sm_30.ptx:297 skipping new declaration
GPGPU-Sim PTX: Warning %rd10 was declared previous at ispass-2009-NN.1.sm_30.ptx:297 skipping new declaration
GPGPU-Sim PTX: Warning %rd11 was declared previous at ispass-2009-NN.1.sm_30.ptx:297 skipping new declaration
GPGPU-Sim PTX: Warning %rd12 was declared previous at ispass-2009-NN.1.sm_30.ptx:297 skipping new declaration
GPGPU-Sim PTX: Warning %rd13 was declared previous at ispass-2009-NN.1.sm_30.ptx:297 skipping new declaration
GPGPU-Sim PTX: Warning %rd14 was declared previous at ispass-2009-NN.1.sm_30.ptx:297 skipping new declaration
GPGPU-Sim PTX: Warning %rd15 was declared previous at ispass-2009-NN.1.sm_30.ptx:297 skipping new declaration
GPGPU-Sim PTX: Warning %rd16 was declared previous at ispass-2009-NN.1.sm_30.ptx:297 skipping new declaration
GPGPU-Sim PTX: Warning %rd17 was declared previous at ispass-2009-NN.1.sm_30.ptx:297 skipping new declaration
GPGPU-Sim PTX: Warning %rd18 was declared previous at ispass-2009-NN.1.sm_30.ptx:297 skipping new declaration
GPGPU-Sim PTX: Warning %rd19 was declared previous at ispass-2009-NN.1.sm_30.ptx:297 skipping new declaration
GPGPU-Sim PTX: Warning %rd20 was declared previous at ispass-2009-NN.1.sm_30.ptx:297 skipping new declaration
GPGPU-Sim PTX: Warning %rd21 was declared previous at ispass-2009-NN.1.sm_30.ptx:297 skipping new declaration
GPGPU-Sim PTX: Warning %rd22 was declared previous at ispass-2009-NN.1.sm_30.ptx:297 skipping new declaration
GPGPU-Sim PTX: Warning %rd23 was declared previous at ispass-2009-NN.1.sm_30.ptx:297 skipping new declaration
GPGPU-Sim PTX: Warning %rd24 was declared previous at ispass-2009-NN.1.sm_30.ptx:297 skipping new declaration
GPGPU-Sim PTX: Warning %rd25 was declared previous at ispass-2009-NN.1.sm_30.ptx:297 skipping new declaration
GPGPU-Sim PTX: Warning %rd26 was declared previous at ispass-2009-NN.1.sm_30.ptx:297 skipping new declaration
GPGPU-Sim PTX: Warning %rd27 was declared previous at ispass-2009-NN.1.sm_30.ptx:297 skipping new declaration
GPGPU-Sim PTX: Warning %rd28 was declared previous at ispass-2009-NN.1.sm_30.ptx:297 skipping new declaration
GPGPU-Sim PTX: instruction assembly for function '_Z18executeSecondLayerPfS_S_'...   done.
GPGPU-Sim PTX: Warning %p0 was declared previous at ispass-2009-NN.1.sm_30.ptx:437 skipping new declaration
GPGPU-Sim PTX: Warning %p1 was declared previous at ispass-2009-NN.1.sm_30.ptx:437 skipping new declaration
GPGPU-Sim PTX: Warning %p2 was declared previous at ispass-2009-NN.1.sm_30.ptx:437 skipping new declaration
GPGPU-Sim PTX: Warning %p3 was declared previous at ispass-2009-NN.1.sm_30.ptx:437 skipping new declaration
GPGPU-Sim PTX: Warning %p4 was declared previous at ispass-2009-NN.1.sm_30.ptx:437 skipping new declaration
GPGPU-Sim PTX: Warning %f0 was declared previous at ispass-2009-NN.1.sm_30.ptx:438 skipping new declaration
GPGPU-Sim PTX: Warning %f1 was declared previous at ispass-2009-NN.1.sm_30.ptx:438 skipping new declaration
GPGPU-Sim PTX: Warning %f2 was declared previous at ispass-2009-NN.1.sm_30.ptx:438 skipping new declaration
GPGPU-Sim PTX: Warning %f3 was declared previous at ispass-2009-NN.1.sm_30.ptx:438 skipping new declaration
GPGPU-Sim PTX: Warning %f4 was declared previous at ispass-2009-NN.1.sm_30.ptx:438 skipping new declaration
GPGPU-Sim PTX: Warning %f5 was declared previous at ispass-2009-NN.1.sm_30.ptx:438 skipping new declaration
GPGPU-Sim PTX: Warning %f6 was declared previous at ispass-2009-NN.1.sm_30.ptx:438 skipping new declaration
GPGPU-Sim PTX: Warning %f7 was declared previous at ispass-2009-NN.1.sm_30.ptx:438 skipping new declaration
GPGPU-Sim PTX: Warning %f8 was declared previous at ispass-2009-NN.1.sm_30.ptx:438 skipping new declaration
GPGPU-Sim PTX: Warning %f9 was declared previous at ispass-2009-NN.1.sm_30.ptx:438 skipping new declaration
GPGPU-Sim PTX: Warning %f10 was declared previous at ispass-2009-NN.1.sm_30.ptx:438 skipping new declaration
GPGPU-Sim PTX: Warning %f11 was declared previous at ispass-2009-NN.1.sm_30.ptx:438 skipping new declaration
GPGPU-Sim PTX: Warning %f12 was declared previous at ispass-2009-NN.1.sm_30.ptx:438 skipping new declaration
GPGPU-Sim PTX: Warning %f13 was declared previous at ispass-2009-NN.1.sm_30.ptx:438 skipping new declaration
GPGPU-Sim PTX: Warning %f14 was declared previous at ispass-2009-NN.1.sm_30.ptx:438 skipping new declaration
GPGPU-Sim PTX: Warning %f15 was declared previous at ispass-2009-NN.1.sm_30.ptx:438 skipping new declaration
GPGPU-Sim PTX: Warning %f16 was declared previous at ispass-2009-NN.1.sm_30.ptx:438 skipping new declaration
GPGPU-Sim PTX: Warning %f17 was declared previous at ispass-2009-NN.1.sm_30.ptx:438 skipping new declaration
GPGPU-Sim PTX: Warning %f18 was declared previous at ispass-2009-NN.1.sm_30.ptx:438 skipping new declaration
GPGPU-Sim PTX: Warning %f19 was declared previous at ispass-2009-NN.1.sm_30.ptx:438 skipping new declaration
GPGPU-Sim PTX: Warning %f20 was declared previous at ispass-2009-NN.1.sm_30.ptx:438 skipping new declaration
GPGPU-Sim PTX: Warning %f21 was declared previous at ispass-2009-NN.1.sm_30.ptx:438 skipping new declaration
GPGPU-Sim PTX: Warning %f22 was declared previous at ispass-2009-NN.1.sm_30.ptx:438 skipping new declaration
GPGPU-Sim PTX: Warning %f23 was declared previous at ispass-2009-NN.1.sm_30.ptx:438 skipping new declaration
GPGPU-Sim PTX: Warning %f24 was declared previous at ispass-2009-NN.1.sm_30.ptx:438 skipping new declaration
GPGPU-Sim PTX: Warning %f25 was declared previous at ispass-2009-NN.1.sm_30.ptx:438 skipping new declaration
GPGPU-Sim PTX: Warning %f26 was declared previous at ispass-2009-NN.1.sm_30.ptx:438 skipping new declaration
GPGPU-Sim PTX: Warning %f27 was declared previous at ispass-2009-NN.1.sm_30.ptx:438 skipping new declaration
GPGPU-Sim PTX: Warning %f28 was declared previous at ispass-2009-NN.1.sm_30.ptx:438 skipping new declaration
GPGPU-Sim PTX: Warning %f29 was declared previous at ispass-2009-NN.1.sm_30.ptx:438 skipping new declaration
GPGPU-Sim PTX: Warning %f30 was declared previous at ispass-2009-NN.1.sm_30.ptx:438 skipping new declaration
GPGPU-Sim PTX: Warning %f31 was declared previous at ispass-2009-NN.1.sm_30.ptx:438 skipping new declaration
GPGPU-Sim PTX: Warning %f32 was declared previous at ispass-2009-NN.1.sm_30.ptx:438 skipping new declaration
GPGPU-Sim PTX: Warning %f33 was declared previous at ispass-2009-NN.1.sm_30.ptx:438 skipping new declaration
GPGPU-Sim PTX: Warning %f34 was declared previous at ispass-2009-NN.1.sm_30.ptx:438 skipping new declaration
GPGPU-Sim PTX: Warning %f35 was declared previous at ispass-2009-NN.1.sm_30.ptx:438 skipping new declaration
GPGPU-Sim PTX: Warning %f36 was declared previous at ispass-2009-NN.1.sm_30.ptx:438 skipping new declaration
GPGPU-Sim PTX: Warning %f37 was declared previous at ispass-2009-NN.1.sm_30.ptx:438 skipping new declaration
GPGPU-Sim PTX: Warning %f38 was declared previous at ispass-2009-NN.1.sm_30.ptx:438 skipping new declaration
GPGPU-Sim PTX: Warning %f39 was declared previous at ispass-2009-NN.1.sm_30.ptx:438 skipping new declaration
GPGPU-Sim PTX: Warning %f40 was declared previous at ispass-2009-NN.1.sm_30.ptx:438 skipping new declaration
GPGPU-Sim PTX: Warning %f41 was declared previous at ispass-2009-NN.1.sm_30.ptx:438 skipping new declaration
GPGPU-Sim PTX: Warning %f42 was declared previous at ispass-2009-NN.1.sm_30.ptx:438 skipping new declaration
GPGPU-Sim PTX: Warning %f43 was declared previous at ispass-2009-NN.1.sm_30.ptx:438 skipping new declaration
GPGPU-Sim PTX: Warning %f44 was declared previous at ispass-2009-NN.1.sm_30.ptx:438 skipping new declaration
GPGPU-Sim PTX: Warning %f45 was declared previous at ispass-2009-NN.1.sm_30.ptx:438 skipping new declaration
GPGPU-Sim PTX: Warning %f46 was declared previous at ispass-2009-NN.1.sm_30.ptx:438 skipping new declaration
GPGPU-Sim PTX: Warning %f47 was declared previous at ispass-2009-NN.1.sm_30.ptx:438 skipping new declaration
GPGPU-Sim PTX: Warning %f48 was declared previous at ispass-2009-NN.1.sm_30.ptx:438 skipping new declaration
GPGPU-Sim PTX: Warning %f49 was declared previous at ispass-2009-NN.1.sm_30.ptx:438 skipping new declaration
GPGPU-Sim PTX: Warning %f50 was declared previous at ispass-2009-NN.1.sm_30.ptx:438 skipping new declaration
GPGPU-Sim PTX: Warning %f51 was declared previous at ispass-2009-NN.1.sm_30.ptx:438 skipping new declaration
GPGPU-Sim PTX: Warning %f52 was declared previous at ispass-2009-NN.1.sm_30.ptx:438 skipping new declaration
GPGPU-Sim PTX: Warning %f53 was declared previous at ispass-2009-NN.1.sm_30.ptx:438 skipping new declaration
GPGPU-Sim PTX: Warning %f54 was declared previous at ispass-2009-NN.1.sm_30.ptx:438 skipping new declaration
GPGPU-Sim PTX: Warning %f55 was declared previous at ispass-2009-NN.1.sm_30.ptx:438 skipping new declaration
GPGPU-Sim PTX: Warning %f56 was declared previous at ispass-2009-NN.1.sm_30.ptx:438 skipping new declaration
GPGPU-Sim PTX: Warning %f57 was declared previous at ispass-2009-NN.1.sm_30.ptx:438 skipping new declaration
GPGPU-Sim PTX: Warning %f58 was declared previous at ispass-2009-NN.1.sm_30.ptx:438 skipping new declaration
GPGPU-Sim PTX: Warning %f59 was declared previous at ispass-2009-NN.1.sm_30.ptx:438 skipping new declaration
GPGPU-Sim PTX: Warning %f60 was declared previous at ispass-2009-NN.1.sm_30.ptx:438 skipping new declaration
GPGPU-Sim PTX: Warning %f61 was declared previous at ispass-2009-NN.1.sm_30.ptx:438 skipping new declaration
GPGPU-Sim PTX: Warning %f62 was declared previous at ispass-2009-NN.1.sm_30.ptx:438 skipping new declaration
GPGPU-Sim PTX: Warning %f63 was declared previous at ispass-2009-NN.1.sm_30.ptx:438 skipping new declaration
GPGPU-Sim PTX: Warning %f64 was declared previous at ispass-2009-NN.1.sm_30.ptx:438 skipping new declaration
GPGPU-Sim PTX: Warning %f65 was declared previous at ispass-2009-NN.1.sm_30.ptx:438 skipping new declaration
GPGPU-Sim PTX: Warning %f66 was declared previous at ispass-2009-NN.1.sm_30.ptx:438 skipping new declaration
GPGPU-Sim PTX: Warning %f67 was declared previous at ispass-2009-NN.1.sm_30.ptx:438 skipping new declaration
GPGPU-Sim PTX: Warning %r0 was declared previous at ispass-2009-NN.1.sm_30.ptx:439 skipping new declaration
GPGPU-Sim PTX: Warning %r1 was declared previous at ispass-2009-NN.1.sm_30.ptx:439 skipping new declaration
GPGPU-Sim PTX: Warning %r2 was declared previous at ispass-2009-NN.1.sm_30.ptx:439 skipping new declaration
GPGPU-Sim PTX: Warning %r3 was declared previous at ispass-2009-NN.1.sm_30.ptx:439 skipping new declaration
GPGPU-Sim PTX: Warning %r4 was declared previous at ispass-2009-NN.1.sm_30.ptx:439 skipping new declaration
GPGPU-Sim PTX: Warning %r5 was declared previous at ispass-2009-NN.1.sm_30.ptx:439 skipping new declaration
GPGPU-Sim PTX: Warning %r6 was declared previous at ispass-2009-NN.1.sm_30.ptx:439 skipping new declaration
GPGPU-Sim PTX: Warning %r7 was declared previous at ispass-2009-NN.1.sm_30.ptx:439 skipping new declaration
GPGPU-Sim PTX: Warning %r8 was declared previous at ispass-2009-NN.1.sm_30.ptx:439 skipping new declaration
GPGPU-Sim PTX: Warning %r9 was declared previous at ispass-2009-NN.1.sm_30.ptx:439 skipping new declaration
GPGPU-Sim PTX: Warning %r10 was declared previous at ispass-2009-NN.1.sm_30.ptx:439 skipping new declaration
GPGPU-Sim PTX: Warning %r11 was declared previous at ispass-2009-NN.1.sm_30.ptx:439 skipping new declaration
GPGPU-Sim PTX: Warning %r12 was declared previous at ispass-2009-NN.1.sm_30.ptx:439 skipping new declaration
GPGPU-Sim PTX: Warning %r13 was declared previous at ispass-2009-NN.1.sm_30.ptx:439 skipping new declaration
GPGPU-Sim PTX: Warning %r14 was declared previous at ispass-2009-NN.1.sm_30.ptx:439 skipping new declaration
GPGPU-Sim PTX: Warning %r15 was declared previous at ispass-2009-NN.1.sm_30.ptx:439 skipping new declaration
GPGPU-Sim PTX: Warning %r16 was declared previous at ispass-2009-NN.1.sm_30.ptx:439 skipping new declaration
GPGPU-Sim PTX: Warning %r17 was declared previous at ispass-2009-NN.1.sm_30.ptx:439 skipping new declaration
GPGPU-Sim PTX: Warning %r18 was declared previous at ispass-2009-NN.1.sm_30.ptx:439 skipping new declaration
GPGPU-Sim PTX: Warning %r19 was declared previous at ispass-2009-NN.1.sm_30.ptx:439 skipping new declaration
GPGPU-Sim PTX: Warning %r20 was declared previous at ispass-2009-NN.1.sm_30.ptx:439 skipping new declaration
GPGPU-Sim PTX: Warning %r21 was declared previous at ispass-2009-NN.1.sm_30.ptx:439 skipping new declaration
GPGPU-Sim PTX: Warning %r22 was declared previous at ispass-2009-NN.1.sm_30.ptx:439 skipping new declaration
GPGPU-Sim PTX: Warning %r23 was declared previous at ispass-2009-NN.1.sm_30.ptx:439 skipping new declaration
GPGPU-Sim PTX: Warning %r24 was declared previous at ispass-2009-NN.1.sm_30.ptx:439 skipping new declaration
GPGPU-Sim PTX: Warning %r25 was declared previous at ispass-2009-NN.1.sm_30.ptx:439 skipping new declaration
GPGPU-Sim PTX: Warning %r26 was declared previous at ispass-2009-NN.1.sm_30.ptx:439 skipping new declaration
GPGPU-Sim PTX: Warning %fd0 was declared previous at ispass-2009-NN.1.sm_30.ptx:440 skipping new declaration
GPGPU-Sim PTX: Warning %fd1 was declared previous at ispass-2009-NN.1.sm_30.ptx:440 skipping new declaration
GPGPU-Sim PTX: Warning %fd2 was declared previous at ispass-2009-NN.1.sm_30.ptx:440 skipping new declaration
GPGPU-Sim PTX: Warning %fd3 was declared previous at ispass-2009-NN.1.sm_30.ptx:440 skipping new declaration
GPGPU-Sim PTX: Warning %fd4 was declared previous at ispass-2009-NN.1.sm_30.ptx:440 skipping new declaration
GPGPU-Sim PTX: Warning %rd0 was declared previous at ispass-2009-NN.1.sm_30.ptx:441 skipping new declaration
GPGPU-Sim PTX: Warning %rd1 was declared previous at ispass-2009-NN.1.sm_30.ptx:441 skipping new declaration
GPGPU-Sim PTX: Warning %rd2 was declared previous at ispass-2009-NN.1.sm_30.ptx:441 skipping new declaration
GPGPU-Sim PTX: Warning %rd3 was declared previous at ispass-2009-NN.1.sm_30.ptx:441 skipping new declaration
GPGPU-Sim PTX: Warning %rd4 was declared previous at ispass-2009-NN.1.sm_30.ptx:441 skipping new declaration
GPGPU-Sim PTX: Warning %rd5 was declared previous at ispass-2009-NN.1.sm_30.ptx:441 skipping new declaration
GPGPU-Sim PTX: Warning %rd6 was declared previous at ispass-2009-NN.1.sm_30.ptx:441 skipping new declaration
GPGPU-Sim PTX: Warning %rd7 was declared previous at ispass-2009-NN.1.sm_30.ptx:441 skipping new declaration
GPGPU-Sim PTX: Warning %rd8 was declared previous at ispass-2009-NN.1.sm_30.ptx:441 skipping new declaration
GPGPU-Sim PTX: Warning %rd9 was declared previous at ispass-2009-NN.1.sm_30.ptx:441 skipping new declaration
GPGPU-Sim PTX: Warning %rd10 was declared previous at ispass-2009-NN.1.sm_30.ptx:441 skipping new declaration
[...]
dram[1]:        702       686       562       491       666       501       268       281       268       285       270       267       263       265       268       268
dram[2]:        726       637       582       543       557       345       268       267       268       267       269       267       262       263       268       267
dram[3]:        711       570       423       607       453       374       268       267       268       268       268       267       265       262       268       269
dram[4]:        485       599       444       633       375       418       267       271       268       268       268       268       262       264       268       268
dram[5]:        482       623       439       607       450       537       267       267       268       271       268       267       265       262       268       269
Memory Partition 0: 
Cache L2_bank_000:
MSHR contents

Cache L2_bank_001:
MSHR contents

In Dram Latency Queue (total = 0): 
DRAM[0]: 16 bks, busW=4 BL=8 CL=12, tRRD=6 tCCD=2, tRCD=12 tRAS=28 tRP=12 tRC=40
n_cmd=3510580 n_nop=3508762 n_act=92 n_pre=76 n_ref_event=30246352 n_req=1626 n_rd=1602 n_rd_L2_A=0 n_write=0 n_wr_bk=48 bw_util=0.00094
n_activity=12440 dram_eff=0.2653
bk0: 154a 3510222i bk1: 168a 3510118i bk2: 120a 3510277i bk3: 128a 3510236i bk4: 134a 3510071i bk5: 139a 3509950i bk6: 91a 3510420i bk7: 87a 3510428i bk8: 73a 3510388i bk9: 89a 3510316i bk10: 86a 3510339i bk11: 81a 3510439i bk12: 56a 3510501i bk13: 65a 3510508i bk14: 70a 3510471i bk15: 61a 3510484i 

------------------------------------------------------------------------

Row_Buffer_Locality = 0.950800
Row_Buffer_Locality_read = 0.958802
Row_Buffer_Locality_write = 0.416667
Bank_Level_Parallism = 1.037861
Bank_Level_Parallism_Col = 0.000000
Bank_Level_Parallism_Ready = 1.001818
write_to_read_ratio_blp_rw_average = 0.000000
GrpLevelPara = 0.000000 

BW Util details:
bwutil = 0.000940 
total_CMD = 3510580 
util_bw = 3300 
Wasted_Col = 2003 
Wasted_Row = 862 
Idle = 3504415 

BW Util Bottlenecks: 
RCDc_limit = 921 
RCDWRc_limit = 93 
WTRc_limit = 0 
RTWc_limit = 22 
CCDLc_limit = 1002 
rwq = 0 
CCDLc_limit_alone = 998 
WTRc_limit_alone = 0 
RTWc_limit_alone = 18 

Commands details: 
total_CMD = 3510580 
n_nop = 3508762 
Read = 1602 
Write = 0 
L2_Alloc = 0 
L2_WB = 48 
n_act = 92 
n_pre = 76 
n_ref = 30246352 
n_req = 1626 
total_req = 1650 

Dual Bus Interface Util: 
issued_total_row = 168 
issued_total_col = 1650 
Row_Bus_Util =  0.000048 
CoL_Bus_Util = 0.000470 
Either_Row_CoL_Bus_Util = 0.000518 
Issued_on_Two_Bus_Simul_Util = 0.000000 
issued_two_Eff = 0.000000 
queue_avg = 0.001673 


dram_util_bins: 0 0 0 0 0 0 0 0 0 0
dram_eff_bins: 0 0 0 0 0 0 0 0 0 0
mrqq: max=8 avg=0.00167294
Memory Partition 1: 
Cache L2_bank_002:
MSHR contents

Cache L2_bank_003:
MSHR contents

In Dram Latency Queue (total = 0): 
DRAM[1]: 16 bks, busW=4 BL=8 CL=12, tRRD=6 tCCD=2, tRCD=12 tRAS=28 tRP=12 tRC=40
n_cmd=3510580 n_nop=3508780 n_act=86 n_pre=70 n_ref_event=0 n_req=1620 n_rd=1596 n_rd_L2_A=0 n_write=0 n_wr_bk=48 bw_util=0.0009366
n_activity=12312 dram_eff=0.2671
bk0: 160a 3510156i bk1: 164a 3510143i bk2: 117a 3510295i bk3: 130a 3510281i bk4: 125a 3510085i bk5: 134a 3510154i bk6: 89a 3510423i bk7: 91a 3510430i bk8: 72a 3510343i bk9: 83a 3510331i bk10: 85a 3510323i bk11: 83a 3510437i bk12: 60a 3510493i bk13: 75a 3510484i bk14: 69a 3510465i bk15: 59a 3510483i 

------------------------------------------------------------------------

Row_Buffer_Locality = 0.954938
Row_Buffer_Locality_read = 0.961153
Row_Buffer_Locality_write = 0.541667
Bank_Level_Parallism = 1.041943
Bank_Level_Parallism_Col = 1.027107
Bank_Level_Parallism_Ready = 1.004866
write_to_read_ratio_blp_rw_average = 0.044419
GrpLevelPara = 1.017768 

BW Util details:
bwutil = 0.000937 
total_CMD = 3510580 
util_bw = 3288 
Wasted_Col = 1923 
Wasted_Row = 784 
Idle = 3504585 

BW Util Bottlenecks: 
RCDc_limit = 872 
RCDWRc_limit = 75 
WTRc_limit = 0 
RTWc_limit = 50 
CCDLc_limit = 999 
rwq = 0 
CCDLc_limit_alone = 990 
WTRc_limit_alone = 0 
RTWc_limit_alone = 41 

Commands details: 
total_CMD = 3510580 
n_nop = 3508780 
Read = 1596 
Write = 0 
L2_Alloc = 0 
L2_WB = 48 
n_act = 86 
n_pre = 70 
n_ref = 0 
n_req = 1620 
total_req = 1644 

Dual Bus Interface Util: 
issued_total_row = 156 
issued_total_col = 1644 
Row_Bus_Util =  0.000044 
CoL_Bus_Util = 0.000468 
Either_Row_CoL_Bus_Util = 0.000513 
Issued_on_Two_Bus_Simul_Util = 0.000000 
issued_two_Eff = 0.000000 
queue_avg = 0.001543 


dram_util_bins: 0 0 0 0 0 0 0 0 0 0
dram_eff_bins: 0 0 0 0 0 0 0 0 0 0
mrqq: max=10 avg=0.00154333
Memory Partition 2: 
Cache L2_bank_004:
MSHR contents

Cache L2_bank_005:
MSHR contents

In Dram Latency Queue (total = 0): 
DRAM[2]: 16 bks, busW=4 BL=8 CL=12, tRRD=6 tCCD=2, tRCD=12 tRAS=28 tRP=12 tRC=40
n_cmd=3510580 n_nop=3508848 n_act=74 n_pre=58 n_ref_event=0 n_req=1578 n_rd=1556 n_rd_L2_A=0 n_write=0 n_wr_bk=44 bw_util=0.0009115
n_activity=11783 dram_eff=0.2716
bk0: 156a 3510232i bk1: 160a 3510221i bk2: 118a 3510273i bk3: 130a 3510265i bk4: 117a 3510233i bk5: 129a 3510163i bk6: 80a 3510447i bk7: 81a 3510457i bk8: 75a 3510343i bk9: 74a 3510398i bk10: 88a 3510339i bk11: 87a 3510430i bk12: 58a 3510505i bk13: 74a 3510486i bk14: 66a 3510469i bk15: 63a 3510468i 

------------------------------------------------------------------------

Row_Buffer_Locality = 0.960710
Row_Buffer_Locality_read = 0.965296
Row_Buffer_Locality_write = 0.636364
Bank_Level_Parallism = 1.038651
Bank_Level_Parallism_Col = 1.025078
Bank_Level_Parallism_Ready = 1.001249
write_to_read_ratio_blp_rw_average = 0.039667
GrpLevelPara = 1.016397 

BW Util details:
bwutil = 0.000912 
total_CMD = 3510580 
util_bw = 3200 
Wasted_Col = 1741 
Wasted_Row = 639 
Idle = 3505000 

BW Util Bottlenecks: 
RCDc_limit = 753 
RCDWRc_limit = 55 
WTRc_limit = 0 
RTWc_limit = 26 
CCDLc_limit = 956 
rwq = 0 
CCDLc_limit_alone = 948 
WTRc_limit_alone = 0 
RTWc_limit_alone = 18 

Commands details: 
total_CMD = 3510580 
n_nop = 3508848 
Read = 1556 
Write = 0 
L2_Alloc = 0 
L2_WB = 44 
n_act = 74 
n_pre = 58 
n_ref = 0 
n_req = 1578 
total_req = 1600 

Dual Bus Interface Util: 
issued_total_row = 132 
issued_total_col = 1600 
Row_Bus_Util =  0.000038 
CoL_Bus_Util = 0.000456 
Either_Row_CoL_Bus_Util = 0.000493 
Issued_on_Two_Bus_Simul_Util = 0.000000 
issued_two_Eff = 0.000000 
queue_avg = 0.001332 


dram_util_bins: 0 0 0 0 0 0 0 0 0 0
dram_eff_bins: 0 0 0 0 0 0 0 0 0 0
mrqq: max=7 avg=0.00133226
Memory Partition 3: 
Cache L2_bank_006:
MSHR contents

Cache L2_bank_007:
MSHR contents

In Dram Latency Queue (total = 0): 
DRAM[3]: 16 bks, busW=4 BL=8 CL=12, tRRD=6 tCCD=2, tRCD=12 tRAS=28 tRP=12 tRC=40
n_cmd=3510580 n_nop=3508858 n_act=78 n_pre=62 n_ref_event=0 n_req=1560 n_rd=1538 n_rd_L2_A=0 n_write=0 n_wr_bk=44 bw_util=0.0009013
n_activity=11799 dram_eff=0.2682
bk0: 160a 3510162i bk1: 156a 3510245i bk2: 118a 3510256i bk3: 126a 3510275i bk4: 121a 3510176i bk5: 128a 3510088i bk6: 76a 3510447i bk7: 73a 3510458i bk8: 85a 3510314i bk9: 72a 3510396i bk10: 86a 3510391i bk11: 81a 3510449i bk12: 56a 3510512i bk13: 69a 3510504i bk14: 69a 3510469i bk15: 62a 3510479i 

------------------------------------------------------------------------

Row_Buffer_Locality = 0.957692
Row_Buffer_Locality_read = 0.963589
Row_Buffer_Locality_write = 0.545455
Bank_Level_Parallism = 1.052017
Bank_Level_Parallism_Col = 0.000000
Bank_Level_Parallism_Ready = 1.009482
write_to_read_ratio_blp_rw_average = 0.000000
GrpLevelPara = 0.000000 

BW Util details:
bwutil = 0.000901 
total_CMD = 3510580 
util_bw = 3164 
Wasted_Col = 1782 
Wasted_Row = 664 
Idle = 3504970 

BW Util Bottlenecks: 
RCDc_limit = 789 
RCDWRc_limit = 65 
WTRc_limit = 0 
RTWc_limit = 37 
CCDLc_limit = 946 
rwq = 0 
CCDLc_limit_alone = 938 
WTRc_limit_alone = 0 
RTWc_limit_alone = 29 

Commands details: 
total_CMD = 3510580 
n_nop = 3508858 
Read = 1538 
Write = 0 
L2_Alloc = 0 
L2_WB = 44 
n_act = 78 
n_pre = 62 
n_ref = 0 
n_req = 1560 
total_req = 1582 

Dual Bus Interface Util: 
issued_total_row = 140 
issued_total_col = 1582 
Row_Bus_Util =  0.000040 
CoL_Bus_Util = 0.000451 
Either_Row_CoL_Bus_Util = 0.000491 
Issued_on_Two_Bus_Simul_Util = 0.000000 
issued_two_Eff = 0.000000 
queue_avg = 0.001490 


dram_util_bins: 0 0 0 0 0 0 0 0 0 0
dram_eff_bins: 0 0 0 0 0 0 0 0 0 0
mrqq: max=13 avg=0.00149007
Memory Partition 4: 
Cache L2_bank_008:
MSHR contents

Cache L2_bank_009:
MSHR contents

In Dram Latency Queue (total = 0): 
DRAM[4]: 16 bks, busW=4 BL=8 CL=12, tRRD=6 tCCD=2, tRCD=12 tRAS=28 tRP=12 tRC=40
n_cmd=3510580 n_nop=3508854 n_act=75 n_pre=59 n_ref_event=0 n_req=1570 n_rd=1548 n_rd_L2_A=0 n_write=0 n_wr_bk=44 bw_util=0.000907
n_activity=11700 dram_eff=0.2721
bk0: 160a 3510142i bk1: 152a 3510230i bk2: 121a 3510276i bk3: 122a 3510290i bk4: 125a 3510124i bk5: 128a 3510125i bk6: 83a 3510430i bk7: 83a 3510437i bk8: 70a 3510393i bk9: 76a 3510397i bk10: 83a 3510437i bk11: 78a 3510462i bk12: 63a 3510507i bk13: 64a 3510503i bk14: 69a 3510468i bk15: 71a 3510460i 

------------------------------------------------------------------------

Row_Buffer_Locality = 0.959873
Row_Buffer_Locality_read = 0.966408
Row_Buffer_Locality_write = 0.500000
Bank_Level_Parallism = 1.043621
Bank_Level_Parallism_Col = 1.031658
Bank_Level_Parallism_Ready = 1.005025
write_to_read_ratio_blp_rw_average = 0.040116
GrpLevelPara = 1.023925 

BW Util details:
bwutil = 0.000907 
total_CMD = 3510580 
util_bw = 3184 
Wasted_Col = 1736 
Wasted_Row = 668 
Idle = 3504992 

BW Util Bottlenecks: 
RCDc_limit = 737 
RCDWRc_limit = 73 
WTRc_limit = 3 
RTWc_limit = 15 
CCDLc_limit = 959 
rwq = 0 
CCDLc_limit_alone = 955 
WTRc_limit_alone = 3 
RTWc_limit_alone = 11 

Commands details: 
total_CMD = 3510580 
n_nop = 3508854 
Read = 1548 
Write = 0 
L2_Alloc = 0 
L2_WB = 44 
n_act = 75 
n_pre = 59 
n_ref = 0 
n_req = 1570 
total_req = 1592 

Dual Bus Interface Util: 
issued_total_row = 134 
issued_total_col = 1592 
Row_Bus_Util =  0.000038 
CoL_Bus_Util = 0.000453 
Either_Row_CoL_Bus_Util = 0.000492 
Issued_on_Two_Bus_Simul_Util = 0.000000 
issued_two_Eff = 0.000000 
queue_avg = 0.001423 


dram_util_bins: 0 0 0 0 0 0 0 0 0 0
dram_eff_bins: 0 0 0 0 0 0 0 0 0 0
mrqq: max=10 avg=0.00142284
Memory Partition 5: 
Cache L2_bank_010:
MSHR contents

Cache L2_bank_011:
MSHR contents

In Dram Latency Queue (total = 0): 
DRAM[5]: 16 bks, busW=4 BL=8 CL=12, tRRD=6 tCCD=2, tRCD=12 tRAS=28 tRP=12 tRC=40
n_cmd=3510580 n_nop=3508817 n_act=79 n_pre=63 n_ref_event=4562280503665652019 n_req=1597 n_rd=1573 n_rd_L2_A=0 n_write=0 n_wr_bk=48 bw_util=0.0009235
n_activity=11870 dram_eff=0.2731
bk0: 156a 3510201i bk1: 156a 3510204i bk2: 132a 3510257i bk3: 122a 3510274i bk4: 138a 3510039i bk5: 137a 3510174i bk6: 77a 3510447i bk7: 86a 3510437i bk8: 76a 3510331i bk9: 74a 3510384i bk10: 83a 3510440i bk11: 76a 3510430i bk12: 66a 3510497i bk13: 62a 3510509i bk14: 66a 3510463i bk15: 66a 3510462i 

------------------------------------------------------------------------

Row_Buffer_Locality = 0.957420
Row_Buffer_Locality_read = 0.964399
Row_Buffer_Locality_write = 0.500000
Bank_Level_Parallism = 1.033432
Bank_Level_Parallism_Col = 12.288815
Bank_Level_Parallism_Ready = 1.003085
write_to_read_ratio_blp_rw_average = 0.036404
GrpLevelPara = 0.953728 

BW Util details:
bwutil = 0.000923 
total_CMD = 3510580 
util_bw = 3242 
Wasted_Col = 1819 
Wasted_Row = 743 
Idle = 3504776 

BW Util Bottlenecks: 
RCDc_limit = 780 
RCDWRc_limit = 84 
WTRc_limit = 14 
RTWc_limit = 0 
CCDLc_limit = 974 
rwq = 0 
CCDLc_limit_alone = 972 
WTRc_limit_alone = 12 
RTWc_limit_alone = 0 

Commands details: 
total_CMD = 3510580 
n_nop = 3508817 
Read = 1573 
Write = 0 
L2_Alloc = 0 
L2_WB = 48 
n_act = 79 
n_pre = 63 
n_ref = 4562280503665652019 
n_req = 1597 
total_req = 1621 

Dual Bus Interface Util: 
issued_total_row = 142 
issued_total_col = 1621 
Row_Bus_Util =  0.000040 
CoL_Bus_Util = 0.000462 
Either_Row_CoL_Bus_Util = 0.000502 
Issued_on_Two_Bus_Simul_Util = 0.000000 
issued_two_Eff = 0.000000 
queue_avg = 0.001457 


dram_util_bins: 0 0 0 0 0 0 0 0 0 0
dram_eff_bins: 0 0 0 0 0 0 0 0 0 0
mrqq: max=9 avg=0.00145731

========= L2 cache stats =========
L2_cache_bank[0]: Access = 54491, Miss = 1946, Miss_rate = 0.036, Pending_hits = 435, Reservation_fails = 2338
L2_cache_bank[1]: Access = 53381, Miss = 1922, Miss_rate = 0.036, Pending_hits = 479, Reservation_fails = 1800
L2_cache_bank[2]: Access = 54420, Miss = 1945, Miss_rate = 0.036, Pending_hits = 420, Reservation_fails = 2841
L2_cache_bank[3]: Access = 52946, Miss = 2047, Miss_rate = 0.039, Pending_hits = 431, Reservation_fails = 1608
L2_cache_bank[4]: Access = 53757, Miss = 1902, Miss_rate = 0.035, Pending_hits = 357, Reservation_fails = 1814
L2_cache_bank[5]: Access = 54639, Miss = 2012, Miss_rate = 0.037, Pending_hits = 382, Reservation_fails = 1477
L2_cache_bank[6]: Access = 53776, Miss = 1867, Miss_rate = 0.035, Pending_hits = 364, Reservation_fails = 1793
L2_cache_bank[7]: Access = 54204, Miss = 1978, Miss_rate = 0.036, Pending_hits = 394, Reservation_fails = 1289
L2_cache_bank[8]: Access = 55466, Miss = 1872, Miss_rate = 0.034, Pending_hits = 362, Reservation_fails = 1411
L2_cache_bank[9]: Access = 54011, Miss = 1987, Miss_rate = 0.037, Pending_hits = 424, Reservation_fails = 2006
L2_cache_bank[10]: Access = 54478, Miss = 1900, Miss_rate = 0.035, Pending_hits = 417, Reservation_fails = 1768
L2_cache_bank[11]: Access = 54412, Miss = 1959, Miss_rate = 0.036, Pending_hits = 456, Reservation_fails = 2126
L2_total_cache_accesses = 649981
L2_total_cache_misses = 23337
L2_total_cache_miss_rate = 0.0359
L2_total_cache_pending_hits = 4921
L2_total_cache_reservation_fails = 22271
L2_total_cache_breakdown:
	L2_cache_stats_breakdown[GLOBAL_ACC_R][HIT] = 619404
	L2_cache_stats_breakdown[GLOBAL_ACC_R][HIT_RESERVED] = 4469
	L2_cache_stats_breakdown[GLOBAL_ACC_R][MISS] = 1535
	L2_cache_stats_breakdown[GLOBAL_ACC_R][RESERVATION_FAIL] = 18757
	L2_cache_stats_breakdown[GLOBAL_ACC_R][SECTOR_MISS] = 7708
	L2_cache_stats_breakdown[LOCAL_ACC_R][HIT] = 0
	L2_cache_stats_breakdown[LOCAL_ACC_R][HIT_RESERVED] = 0
	L2_cache_stats_breakdown[LOCAL_ACC_R][MISS] = 0
	L2_cache_stats_breakdown[LOCAL_ACC_R][RESERVATION_FAIL] = 0
	L2_cache_stats_breakdown[LOCAL_ACC_R][SECTOR_MISS] = 0
	L2_cache_stats_breakdown[CONST_ACC_R][HIT] = 116
	L2_cache_stats_breakdown[CONST_ACC_R][HIT_RESERVED] = 24
	L2_cache_stats_breakdown[CONST_ACC_R][MISS] = 3
	L2_cache_stats_breakdown[CONST_ACC_R][RESERVATION_FAIL] = 416
	L2_cache_stats_breakdown[CONST_ACC_R][SECTOR_MISS] = 7
	L2_cache_stats_breakdown[TEXTURE_ACC_R][HIT] = 0
	L2_cache_stats_breakdown[TEXTURE_ACC_R][HIT_RESERVED] = 0
	L2_cache_stats_breakdown[TEXTURE_ACC_R][MISS] = 0
	L2_cache_stats_breakdown[TEXTURE_ACC_R][RESERVATION_FAIL] = 0
	L2_cache_stats_breakdown[TEXTURE_ACC_R][SECTOR_MISS] = 0
	L2_cache_stats_breakdown[GLOBAL_ACC_W][HIT] = 391
	L2_cache_stats_breakdown[GLOBAL_ACC_W][HIT_RESERVED] = 0
	L2_cache_stats_breakdown[GLOBAL_ACC_W][MISS] = 2079
	L2_cache_stats_breakdown[GLOBAL_ACC_W][RESERVATION_FAIL] = 0
	L2_cache_stats_breakdown[GLOBAL_ACC_W][SECTOR_MISS] = 11845
	L2_cache_stats_breakdown[LOCAL_ACC_W][HIT] = 0
	L2_cache_stats_breakdown[LOCAL_ACC_W][HIT_RESERVED] = 0
	L2_cache_stats_breakdown[LOCAL_ACC_W][MISS] = 0
	L2_cache_stats_breakdown[LOCAL_ACC_W][RESERVATION_FAIL] = 0
	L2_cache_stats_breakdown[LOCAL_ACC_W][SECTOR_MISS] = 0
	L2_cache_stats_breakdown[L1_WRBK_ACC][HIT] = 0
	L2_cache_stats_breakdown[L1_WRBK_ACC][HIT_RESERVED] = 0
	L2_cache_stats_breakdown[L1_WRBK_ACC][MISS] = 0
	L2_cache_stats_breakdown[L1_WRBK_ACC][RESERVATION_FAIL] = 0
	L2_cache_stats_breakdown[L1_WRBK_ACC][SECTOR_MISS] = 0
	L2_cache_stats_breakdown[L2_WRBK_ACC][HIT] = 0
	L2_cache_stats_breakdown[L2_WRBK_ACC][HIT_RESERVED] = 0
	L2_cache_stats_breakdown[L2_WRBK_ACC][MISS] = 0
	L2_cache_stats_breakdown[L2_WRBK_ACC][RESERVATION_FAIL] = 0
	L2_cache_stats_breakdown[L2_WRBK_ACC][SECTOR_MISS] = 0
	L2_cache_stats_breakdown[INST_ACC_R][HIT] = 1812
	L2_cache_stats_breakdown[INST_ACC_R][HIT_RESERVED] = 428
	L2_cache_stats_breakdown[INST_ACC_R][MISS] = 40
	L2_cache_stats_breakdown[INST_ACC_R][RESERVATION_FAIL] = 3098
	L2_cache_stats_breakdown[INST_ACC_R][SECTOR_MISS] = 120
	L2_cache_stats_breakdown[L1_WR_ALLOC_R][HIT] = 0
	L2_cache_stats_breakdown[L1_WR_ALLOC_R][HIT_RESERVED] = 0
	L2_cache_stats_breakdown[L1_WR_ALLOC_R][MISS] = 0
	L2_cache_stats_breakdown[L1_WR_ALLOC_R][RESERVATION_FAIL] = 0
	L2_cache_stats_breakdown[L1_WR_ALLOC_R][SECTOR_MISS] = 0
	L2_cache_stats_breakdown[L2_WR_ALLOC_R][HIT] = 0
	L2_cache_stats_breakdown[L2_WR_ALLOC_R][HIT_RESERVED] = 0
	L2_cache_stats_breakdown[L2_WR_ALLOC_R][MISS] = 0
	L2_cache_stats_breakdown[L2_WR_ALLOC_R][RESERVATION_FAIL] = 0
	L2_cache_stats_breakdown[L2_WR_ALLOC_R][SECTOR_MISS] = 0
	L2_cache_stats_breakdown[GLOBAL_ACC_R][TOTAL_ACCESS] = 633116
	L2_cache_stats_breakdown[CONST_ACC_R][TOTAL_ACCESS] = 150
	L2_cache_stats_breakdown[GLOBAL_ACC_W][TOTAL_ACCESS] = 14315
	L2_cache_stats_breakdown[INST_ACC_R][TOTAL_ACCESS] = 2400
L2_total_cache_reservation_fail_breakdown:
	L2_cache_stats_fail_breakdown[GLOBAL_ACC_R][MSHR_MERGE_ENRTY_FAIL] = 18757
	L2_cache_stats_fail_breakdown[CONST_ACC_R][MSHR_MERGE_ENRTY_FAIL] = 416
	L2_cache_stats_fail_breakdown[INST_ACC_R][MSHR_MERGE_ENRTY_FAIL] = 3098
L2_cache_data_port_util = 0.019
L2_cache_fill_port_util = 0.000

icnt_total_pkts_mem_to_simt=649981
icnt_total_pkts_simt_to_mem=173269
LD_mem_lat_dist  0 0 0 0 0 0 0 0 0 0 0 0 0 0 0 0 0 0 0 0 0 0 0 0 0 0 0
ST_mem_lat_dist  0 0 0 0 0 0 0 0 0 0 0 0 0 0 0 0 0 0 0 0 0 0 0 0 0 0 0
----------------------------Interconnect-DETAILS--------------------------------
Class 0:
Packet latency average = 6.13281
	minimum = 5
	maximum = 45
Network latency average = 6.13266
	minimum = 5
	maximum = 45
Slowest packet = 810080
Flit latency average = 6.13266
	minimum = 5
	maximum = 45
Slowest flit = 817005
Fragmentation average = 0
	minimum = 0
	maximum = 0
Injected packet rate average = 0.00901003
	minimum = 0.00325528 (at node 13)
	maximum = 0.0211418 (at node 24)
Accepted packet rate average = 0.00901003
	minimum = 0.00308026 (at node 16)
	maximum = 0.0137562 (at node 14)
Injected flit rate average = 0.00901003
	minimum = 0.00325528 (at node 13)
	maximum = 0.0211418 (at node 24)
Accepted flit rate average= 0.00901003
	minimum = 0.00308026 (at node 16)
	maximum = 0.0137562 (at node 14)
Injected packet length average = 1
Accepted packet length average = 1
Total in-flight flits = 0 (0 measured)
====== Overall Traffic Statistics ======
====== Traffic class 0 ======
Packet latency average = 13.4852 (4 samples)
	minimum = 5 (4 samples)
	maximum = 125.25 (4 samples)
Network latency average = 12.8442 (4 samples)
	minimum = 5 (4 samples)
	maximum = 119.25 (4 samples)
Flit latency average = 12.4714 (4 samples)
	minimum = 5 (4 samples)
	maximum = 119.25 (4 samples)
Fragmentation average = 0 (4 samples)
	minimum = 0 (4 samples)
	maximum = 0 (4 samples)
Injected packet rate average = 0.0402399 (4 samples)
	minimum = 0.0124699 (4 samples)
	maximum = 0.086951 (4 samples)
Accepted packet rate average = 0.0402399 (4 samples)
	minimum = 0.0155512 (4 samples)
	maximum = 0.0666039 (4 samples)
Injected flit rate average = 0.0419609 (4 samples)
	minimum = 0.0154965 (4 samples)
	maximum = 0.086951 (4 samples)
Accepted flit rate average = 0.0419609 (4 samples)
	minimum = 0.0192239 (4 samples)
	maximum = 0.0666039 (4 samples)
Injected packet size average = 1.04277 (4 samples)
Accepted packet size average = 1.04277 (4 samples)
Hops average = 1 (4 samples)
----------------------------END-of-Interconnect-DETAILS-------------------------


gpgpu_simulation_time = 0 days, 0 hrs, 19 min, 32 sec (1172 sec)
gpgpu_simulation_rate = 59621 (inst/sec)
gpgpu_simulation_rate = 2269 (cycle/sec)
gpgpu_silicon_slowdown = 308505x
7 2 1 0 4 1 4 9 6 9 0 6 9 0 1 5 9 7 3 4 9 6 6 5 4 0 7 4
GPGPU-Sim: *** exit detected ***
