

        *** GPGPU-Sim Simulator Version 4.0.0  [build gpgpu-sim_git-commit-90ec3399763d7c8512cfe7dc193473086c38ca38_modified_0.0] ***


GPGPU-Sim PTX: simulation mode 0 (can change with PTX_SIM_MODE_FUNC environment variable:
               1=functional simulation only, 0=detailed performance simulator)
GPGPU-Sim PTX: overriding embedded ptx with ptx file (PTX_SIM_USE_PTX_FILE is set)
GPGPU-Sim: Configuration options:

-save_embedded_ptx                      0 # saves ptx files embedded in binary as <n>.ptx
-keep                                   0 # keep intermediate files created by GPGPU-Sim when interfacing with external programs
-gpgpu_ptx_save_converted_ptxplus                    0 # Saved converted ptxplus to a file
-gpgpu_occupancy_sm_number                   20 # The SM number to pass to ptxas when getting register usage for computing GPU occupancy. This parameter is required in the config.
-ptx_opcode_latency_int      4,13,4,5,145,32 # Opcode latencies for integers <ADD,MAX,MUL,MAD,DIV,SHFL>Default 1,1,19,25,145,32
-ptx_opcode_latency_fp          4,13,4,5,39 # Opcode latencies for single precision floating points <ADD,MAX,MUL,MAD,DIV>Default 1,1,1,1,30
-ptx_opcode_latency_dp         8,19,8,8,330 # Opcode latencies for double precision floating points <ADD,MAX,MUL,MAD,DIV>Default 8,8,8,8,335
-ptx_opcode_latency_sfu                    8 # Opcode latencies for SFU instructionsDefault 8
-ptx_opcode_latency_tesnor                   64 # Opcode latencies for Tensor instructionsDefault 64
-ptx_opcode_initiation_int          1,2,2,1,8,4 # Opcode initiation intervals for integers <ADD,MAX,MUL,MAD,DIV,SHFL>Default 1,1,4,4,32,4
-ptx_opcode_initiation_fp            1,2,1,1,4 # Opcode initiation intervals for single precision floating points <ADD,MAX,MUL,MAD,DIV>Default 1,1,1,1,5
-ptx_opcode_initiation_dp         8,16,8,8,130 # Opcode initiation intervals for double precision floating points <ADD,MAX,MUL,MAD,DIV>Default 8,8,8,8,130
-ptx_opcode_initiation_sfu                    8 # Opcode initiation intervals for sfu instructionsDefault 8
-ptx_opcode_initiation_tensor                   64 # Opcode initiation intervals for tensor instructionsDefault 64
-cdp_latency         7200,8000,100,12000,1600 # CDP API latency <cudaStreamCreateWithFlags, cudaGetParameterBufferV2_init_perWarp, cudaGetParameterBufferV2_perKernel, cudaLaunchDeviceV2_init_perWarp, cudaLaunchDevicV2_perKernel>Default 7200,8000,100,12000,1600
-network_mode                           1 # Interconnection network mode
-inter_config_file   config_fermi_islip.icnt # Interconnection network config file
-icnt_in_buffer_limit                   64 # in_buffer_limit
-icnt_out_buffer_limit                   64 # out_buffer_limit
-icnt_subnets                           2 # subnets
-icnt_arbiter_algo                      1 # arbiter_algo
-icnt_verbose                           0 # inct_verbose
-icnt_grant_cycles                      1 # grant_cycles
-gpgpu_ptx_use_cuobjdump                    1 # Use cuobjdump to extract ptx and sass from binaries
-gpgpu_experimental_lib_support                    0 # Try to extract code from cuda libraries [Broken because of unknown cudaGetExportTable]
-checkpoint_option                      0 #  checkpointing flag (0 = no checkpoint)
-checkpoint_kernel                      1 #  checkpointing during execution of which kernel (1- 1st kernel)
-checkpoint_CTA                         0 #  checkpointing after # of CTA (< less than total CTA)
-resume_option                          0 #  resume flag (0 = no resume)
-resume_kernel                          0 #  Resume from which kernel (1= 1st kernel)
-resume_CTA                             0 #  resume from which CTA 
-checkpoint_CTA_t                       0 #  resume from which CTA 
-checkpoint_insn_Y                      0 #  resume from which CTA 
-gpgpu_ptx_convert_to_ptxplus                    0 # Convert SASS (native ISA) to ptxplus and run ptxplus
-gpgpu_ptx_force_max_capability                   20 # Force maximum compute capability
-gpgpu_ptx_inst_debug_to_file                    0 # Dump executed instructions' debug information to file
-gpgpu_ptx_inst_debug_file       inst_debug.txt # Executed instructions' debug output file
-gpgpu_ptx_inst_debug_thread_uid                    1 # Thread UID for executed instructions' debug output
-gpgpu_simd_model                       1 # 1 = post-dominator
-gpgpu_shader_core_pipeline              1536:32 # shader core pipeline config, i.e., {<nthread>:<warpsize>}
-gpgpu_tex_cache:l1  N:4:128:24,L:R:m:N:L,T:128:4,128:2 # per-shader L1 texture cache  (READ-ONLY) config  {<nsets>:<bsize>:<assoc>,<rep>:<wr>:<alloc>:<wr_alloc>,<mshr>:<N>:<merge>,<mq>:<rf>}
-gpgpu_const_cache:l1 N:64:64:2,L:R:f:N:L,S:2:32,4 # per-shader L1 constant memory cache  (READ-ONLY) config  {<nsets>:<bsize>:<assoc>,<rep>:<wr>:<alloc>:<wr_alloc>,<mshr>:<N>:<merge>,<mq>} 
-gpgpu_cache:il1     N:4:128:4,L:R:f:N:L,S:2:32,4 # shader L1 instruction cache config  {<nsets>:<bsize>:<assoc>,<rep>:<wr>:<alloc>:<wr_alloc>,<mshr>:<N>:<merge>,<mq>} 
-gpgpu_cache:dl1     N:32:128:4,L:L:m:N:H,S:64:8,8 # per-shader L1 data cache config  {<nsets>:<bsize>:<assoc>,<rep>:<wr>:<alloc>:<wr_alloc>,<mshr>:<N>:<merge>,<mq> | none}
-gpgpu_l1_banks                         1 # The number of L1 cache banks
-gpgpu_l1_banks_byte_interleaving                   32 # l1 banks byte interleaving granularity
-gpgpu_l1_banks_hashing_function                    0 # l1 banks hashing function
-gpgpu_l1_latency                      35 # L1 Hit Latency
-gpgpu_smem_latency                    26 # smem Latency
-gpgpu_cache:dl1PrefL1                 none # per-shader L1 data cache config  {<nsets>:<bsize>:<assoc>,<rep>:<wr>:<alloc>:<wr_alloc>,<mshr>:<N>:<merge>,<mq> | none}
-gpgpu_cache:dl1PrefShared                 none # per-shader L1 data cache config  {<nsets>:<bsize>:<assoc>,<rep>:<wr>:<alloc>:<wr_alloc>,<mshr>:<N>:<merge>,<mq> | none}
-gpgpu_gmem_skip_L1D                    1 # global memory access skip L1D cache (implements -Xptxas -dlcm=cg, default=no skip)
-gpgpu_perfect_mem                      0 # enable perfect memory mode (no cache miss)
-n_regfile_gating_group                    4 # group of lanes that should be read/written together)
-gpgpu_clock_gated_reg_file                    0 # enable clock gated reg file for power calculations
-gpgpu_clock_gated_lanes                    0 # enable clock gated lanes for power calculations
-gpgpu_shader_registers                32768 # Number of registers per shader core. Limits number of concurrent CTAs. (default 8192)
-gpgpu_registers_per_block                 8192 # Maximum number of registers per CTA. (default 8192)
-gpgpu_ignore_resources_limitation                    0 # gpgpu_ignore_resources_limitation (default 0)
-gpgpu_shader_cta                       8 # Maximum number of concurrent CTAs in shader (default 8)
-gpgpu_num_cta_barriers                   16 # Maximum number of named barriers per CTA (default 16)
-gpgpu_n_clusters                      15 # number of processing clusters
-gpgpu_n_cores_per_cluster                    1 # number of simd cores per cluster
-gpgpu_n_cluster_ejection_buffer_size                   32 # number of packets in ejection buffer
-gpgpu_n_ldst_response_buffer_size                    2 # number of response packets in ld/st unit ejection buffer
-gpgpu_shmem_per_block                49152 # Size of shared memory per thread block or CTA (default 48kB)
-gpgpu_shmem_size                   49152 # Size of shared memory per shader core (default 16kB)
-gpgpu_adaptive_cache_config                    0 # adaptive_cache_config
-gpgpu_shmem_sizeDefault                49152 # Size of shared memory per shader core (default 16kB)
-gpgpu_shmem_size_PrefL1                16384 # Size of shared memory per shader core (default 16kB)
-gpgpu_shmem_size_PrefShared                16384 # Size of shared memory per shader core (default 16kB)
-gpgpu_shmem_num_banks                   32 # Number of banks in the shared memory in each shader core (default 16)
-gpgpu_shmem_limited_broadcast                    0 # Limit shared memory to do one broadcast per cycle (default on)
-gpgpu_shmem_warp_parts                    1 # Number of portions a warp is divided into for shared memory bank conflict check 
-gpgpu_mem_unit_ports                    1 # The number of memory transactions allowed per core cycle
-gpgpu_shmem_warp_parts                    1 # Number of portions a warp is divided into for shared memory bank conflict check 
-gpgpu_warpdistro_shader                   -1 # Specify which shader core to collect the warp size distribution from
-gpgpu_warp_issue_shader                    0 # Specify which shader core to collect the warp issue distribution from
-gpgpu_local_mem_map                    1 # Mapping from local memory space address to simulated GPU physical address space (default = enabled)
-gpgpu_num_reg_banks                   16 # Number of register banks (default = 8)
-gpgpu_reg_bank_use_warp_id                    0 # Use warp ID in mapping registers to banks (default = off)
-gpgpu_sub_core_model                    0 # Sub Core Volta/Pascal model (default = off)
-gpgpu_enable_specialized_operand_collector                    1 # enable_specialized_operand_collector
-gpgpu_operand_collector_num_units_sp                    6 # number of collector units (default = 4)
-gpgpu_operand_collector_num_units_dp                    0 # number of collector units (default = 0)
-gpgpu_operand_collector_num_units_sfu                    8 # number of collector units (default = 4)
-gpgpu_operand_collector_num_units_int                    0 # number of collector units (default = 0)
-gpgpu_operand_collector_num_units_tensor_core                    4 # number of collector units (default = 4)
-gpgpu_operand_collector_num_units_mem                    2 # number of collector units (default = 2)
-gpgpu_operand_collector_num_units_gen                    0 # number of collector units (default = 0)
-gpgpu_operand_collector_num_in_ports_sp                    2 # number of collector unit in ports (default = 1)
-gpgpu_operand_collector_num_in_ports_dp                    0 # number of collector unit in ports (default = 0)
-gpgpu_operand_collector_num_in_ports_sfu                    1 # number of collector unit in ports (default = 1)
-gpgpu_operand_collector_num_in_ports_int                    0 # number of collector unit in ports (default = 0)
-gpgpu_operand_collector_num_in_ports_tensor_core                    1 # number of collector unit in ports (default = 1)
-gpgpu_operand_collector_num_in_ports_mem                    1 # number of collector unit in ports (default = 1)
-gpgpu_operand_collector_num_in_ports_gen                    0 # number of collector unit in ports (default = 0)
-gpgpu_operand_collector_num_out_ports_sp                    2 # number of collector unit in ports (default = 1)
-gpgpu_operand_collector_num_out_ports_dp                    0 # number of collector unit in ports (default = 0)
-gpgpu_operand_collector_num_out_ports_sfu                    1 # number of collector unit in ports (default = 1)
-gpgpu_operand_collector_num_out_ports_int                    0 # number of collector unit in ports (default = 0)
-gpgpu_operand_collector_num_out_ports_tensor_core                    1 # number of collector unit in ports (default = 1)
-gpgpu_operand_collector_num_out_ports_mem                    1 # number of collector unit in ports (default = 1)
-gpgpu_operand_collector_num_out_ports_gen                    0 # number of collector unit in ports (default = 0)
-gpgpu_coalesce_arch                   20 # Coalescing arch (GT200 = 13, Fermi = 20)
-gpgpu_num_sched_per_core                    2 # Number of warp schedulers per core
-gpgpu_max_insn_issue_per_warp                    1 # Max number of instructions that can be issued per warp in one cycle by scheduler (either 1 or 2)
-gpgpu_dual_issue_diff_exec_units                    1 # should dual issue use two different execution unit resources (Default = 1)
-gpgpu_simt_core_sim_order                    1 # Select the simulation order of cores in a cluster (0=Fix, 1=Round-Robin)
-gpgpu_pipeline_widths 2,0,0,1,1,2,0,0,1,1,2 # Pipeline widths ID_OC_SP,ID_OC_DP,ID_OC_INT,ID_OC_SFU,ID_OC_MEM,OC_EX_SP,OC_EX_DP,OC_EX_INT,OC_EX_SFU,OC_EX_MEM,EX_WB,ID_OC_TENSOR_CORE,OC_EX_TENSOR_CORE
-gpgpu_tensor_core_avail                    0 # Tensor Core Available (default=0)
-gpgpu_num_sp_units                     2 # Number of SP units (default=1)
-gpgpu_num_dp_units                     0 # Number of DP units (default=0)
-gpgpu_num_int_units                    0 # Number of INT units (default=0)
-gpgpu_num_sfu_units                    1 # Number of SF units (default=1)
-gpgpu_num_tensor_core_units                    0 # Number of tensor_core units (default=1)
-gpgpu_num_mem_units                    1 # Number if ldst units (default=1) WARNING: not hooked up to anything
-gpgpu_scheduler                      gto # Scheduler configuration: < lrr | gto | two_level_active > If two_level_active:<num_active_warps>:<inner_prioritization>:<outer_prioritization>For complete list of prioritization values see shader.h enum scheduler_prioritization_typeDefault: gto
-gpgpu_concurrent_kernel_sm                    0 # Support concurrent kernels on a SM (default = disabled)
-gpgpu_perfect_inst_const_cache                    0 # perfect inst and const cache mode, so all inst and const hits in the cache(default = disabled)
-gpgpu_inst_fetch_throughput                    1 # the number of fetched intruction per warp each cycle
-gpgpu_reg_file_port_throughput                    1 # the number ports of the register file
-specialized_unit_1         0,4,4,4,4,BRA # specialized unit config {<enabled>,<num_units>:<latency>:<initiation>,<ID_OC_SPEC>:<OC_EX_SPEC>,<NAME>}
-specialized_unit_2         0,4,4,4,4,BRA # specialized unit config {<enabled>,<num_units>:<latency>:<initiation>,<ID_OC_SPEC>:<OC_EX_SPEC>,<NAME>}
-specialized_unit_3         0,4,4,4,4,BRA # specialized unit config {<enabled>,<num_units>:<latency>:<initiation>,<ID_OC_SPEC>:<OC_EX_SPEC>,<NAME>}
-specialized_unit_4         0,4,4,4,4,BRA # specialized unit config {<enabled>,<num_units>:<latency>:<initiation>,<ID_OC_SPEC>:<OC_EX_SPEC>,<NAME>}
-specialized_unit_5         0,4,4,4,4,BRA # specialized unit config {<enabled>,<num_units>:<latency>:<initiation>,<ID_OC_SPEC>:<OC_EX_SPEC>,<NAME>}
-specialized_unit_6         0,4,4,4,4,BRA # specialized unit config {<enabled>,<num_units>:<latency>:<initiation>,<ID_OC_SPEC>:<OC_EX_SPEC>,<NAME>}
-specialized_unit_7         0,4,4,4,4,BRA # specialized unit config {<enabled>,<num_units>:<latency>:<initiation>,<ID_OC_SPEC>:<OC_EX_SPEC>,<NAME>}
-specialized_unit_8         0,4,4,4,4,BRA # specialized unit config {<enabled>,<num_units>:<latency>:<initiation>,<ID_OC_SPEC>:<OC_EX_SPEC>,<NAME>}
-gpgpu_perf_sim_memcpy                    1 # Fill the L2 cache on memcpy
-gpgpu_simple_dram_model                    0 # simple_dram_model with fixed latency and BW
-gpgpu_dram_scheduler                    1 # 0 = fifo, 1 = FR-FCFS (defaul)
-gpgpu_dram_partition_queues          64:64:64:64 # i2$:$2d:d2$:$2i
-l2_ideal                               0 # Use a ideal L2 cache that always hit
-gpgpu_cache:dl2     S:64:128:8,L:B:m:L:L,A:256:4,4:0,32 # unified banked L2 data cache config  {<nsets>:<bsize>:<assoc>,<rep>:<wr>:<alloc>:<wr_alloc>,<mshr>:<N>:<merge>,<mq>}
-gpgpu_cache:dl2_texture_only                    0 # L2 cache used for texture only
-gpgpu_n_mem                            6 # number of memory modules (e.g. memory controllers) in gpu
-gpgpu_n_sub_partition_per_mchannel                    2 # number of memory subpartition in each memory module
-gpgpu_n_mem_per_ctrlr                    2 # number of memory chips per memory controller
-gpgpu_memlatency_stat                   14 # track and display latency statistics 0x2 enables MC, 0x4 enables queue logs
-gpgpu_frfcfs_dram_sched_queue_size                   64 # 0 = unlimited (default); # entries per chip
-gpgpu_dram_return_queue_size                  116 # 0 = unlimited (default); # entries per chip
-gpgpu_dram_buswidth                    4 # default = 4 bytes (8 bytes per cycle at DDR)
-gpgpu_dram_burst_length                    8 # Burst length of each DRAM request (default = 4 data bus cycle)
-dram_data_command_freq_ratio                    4 # Frequency ratio between DRAM data bus and command bus (default = 2 times, i.e. DDR)
-gpgpu_dram_timing_opt nbk=16:CCD=2:RRD=6:RCD=12:RAS=28:RP=12:RC=40: CL=12:WL=4:CDLR=5:WR=12:nbkgrp=4:CCDL=3:RTPL=2 # DRAM timing parameters = {nbk:tCCD:tRRD:tRCD:tRAS:tRP:tRC:CL:WL:tCDLR:tWR:nbkgrp:tCCDL:tRTPL}
-gpgpu_l2_rop_latency                  120 # ROP queue latency (default 85)
-dram_latency                         100 # DRAM latency (default 30)
-dram_dual_bus_interface                    0 # dual_bus_interface (default = 0) 
-dram_bnk_indexing_policy                    0 # dram_bnk_indexing_policy (0 = normal indexing, 1 = Xoring with the higher bits) (Default = 0)
-dram_bnkgrp_indexing_policy                    1 # dram_bnkgrp_indexing_policy (0 = take higher bits, 1 = take lower bits) (Default = 0)
-dram_seperate_write_queue_enable                    0 # Seperate_Write_Queue_Enable
-dram_write_queue_size             32:28:16 # Write_Queue_Size
-dram_elimnate_rw_turnaround                    0 # elimnate_rw_turnaround i.e set tWTR and tRTW = 0
-icnt_flit_size                        40 # icnt_flit_size
-gpgpu_mem_addr_mapping dramid@8;00000000.00000000.00000000.00000000.0000RRRR.RRRRRRRR.BBBCCCCB.CCSSSSSS # mapping memory address to dram model {dramid@<start bit>;<memory address map>}
-gpgpu_mem_addr_test                    0 # run sweep test to check address mapping for aliased address
-gpgpu_mem_address_mask                    1 # 0 = old addressing mask, 1 = new addressing mask, 2 = new add. mask + flipped bank sel and chip sel bits
-gpgpu_memory_partition_indexing                    0 # 0 = no indexing, 1 = bitwise xoring, 2 = IPoly, 3 = custom indexing
-gpuwattch_xml_file  gpuwattch_gtx480.xml # GPUWattch XML file
-power_simulation_enabled                    1 # Turn on power simulator (1=On, 0=Off)
-power_per_cycle_dump                    0 # Dump detailed power output each cycle
-power_trace_enabled                    0 # produce a file for the power trace (1=On, 0=Off)
-power_trace_zlevel                     6 # Compression level of the power trace output log (0=no comp, 9=highest)
-steady_power_levels_enabled                    0 # produce a file for the steady power levels (1=On, 0=Off)
-steady_state_definition                  8:4 # allowed deviation:number of samples
-gpgpu_max_cycle                        0 # terminates gpu simulation early (0 = no limit)
-gpgpu_max_insn                 100000000 # terminates gpu simulation early (0 = no limit)
-gpgpu_max_cta                          0 # terminates gpu simulation early (0 = no limit)
-gpgpu_max_completed_cta                    0 # terminates gpu simulation early (0 = no limit)
-gpgpu_runtime_stat                   500 # display runtime statistics such as dram utilization {<freq>:<flag>}
-liveness_message_freq                    1 # Minimum number of seconds between simulation liveness messages (0 = always print)
-gpgpu_compute_capability_major                    2 # Major compute capability version number
-gpgpu_compute_capability_minor                    0 # Minor compute capability version number
-gpgpu_flush_l1_cache                    1 # Flush L1 cache at the end of each kernel call
-gpgpu_flush_l2_cache                    0 # Flush L2 cache at the end of each kernel call
-gpgpu_deadlock_detect                    1 # Stop the simulation at deadlock (1=on (default), 0=off)
-gpgpu_ptx_instruction_classification                    0 # if enabled will classify ptx instruction types per kernel (Max 255 kernels now)
-gpgpu_ptx_sim_mode                     0 # Select between Performance (default) or Functional simulation (1)
-gpgpu_clock_domains 700.0:700.0:700.0:924.0 # Clock Domain Frequencies in MhZ {<Core Clock>:<ICNT Clock>:<L2 Clock>:<DRAM Clock>}
-gpgpu_max_concurrent_kernel                    8 # maximum kernels that can run concurrently on GPU
-gpgpu_cflog_interval                    0 # Interval between each snapshot in control flow logger
-visualizer_enabled                     0 # Turn on visualizer output (1=On, 0=Off)
-visualizer_outputfile                 NULL # Specifies the output log file for visualizer
-visualizer_zlevel                      6 # Compression level of the visualizer output log (0=no comp, 9=highest)
-gpgpu_stack_size_limit                 1024 # GPU thread stack size
-gpgpu_heap_size_limit              8388608 # GPU malloc heap size 
-gpgpu_runtime_sync_depth_limit                    2 # GPU device runtime synchronize depth
-gpgpu_runtime_pending_launch_count_limit                 2048 # GPU device runtime pending launch count
-trace_enabled                          0 # Turn on traces
-trace_components                    none # comma seperated list of traces to enable. Complete list found in trace_streams.tup. Default none
-trace_sampling_core                    0 # The core which is printed using CORE_DPRINTF. Default 0
-trace_sampling_memory_partition                   -1 # The memory partition which is printed using MEMPART_DPRINTF. Default -1 (i.e. all)
-enable_ptx_file_line_stats                    1 # Turn on PTX source line statistic profiling. (1 = On)
-ptx_line_stats_filename gpgpu_inst_stats.txt # Output file for PTX source line statistics.
-gpgpu_kernel_launch_latency                    0 # Kernel launch latency in cycles. Default: 0
-gpgpu_cdp_enabled                      0 # Turn on CDP
-gpgpu_TB_launch_latency                    0 # thread block launch latency in cycles. Default: 0
DRAM Timing Options:
nbk                                    16 # number of banks
CCD                                     2 # column to column delay
RRD                                     6 # minimal delay between activation of rows in different banks
RCD                                    12 # row to column delay
RAS                                    28 # time needed to activate row
RP                                     12 # time needed to precharge (deactivate) row
RC                                     40 # row cycle time
CDLR                                    5 # switching from write to read (changes tWTR)
WR                                     12 # last data-in to row precharge
CL                                     12 # CAS latency
WL                                      4 # Write latency
nbkgrp                                  4 # number of bank groups
CCDL                                    3 # column to column delay between accesses to different bank groups
RTPL                                    2 # read to precharge delay between accesses to different bank groups
Total number of memory sub partition = 12
addr_dec_mask[CHIP]  = 0000000000000000 	high:64 low:0
addr_dec_mask[BK]    = 000000000000e100 	high:16 low:8
addr_dec_mask[ROW]   = 000000000fff0000 	high:28 low:16
addr_dec_mask[COL]   = 0000000000001eff 	high:13 low:0
addr_dec_mask[BURST] = 000000000000003f 	high:6 low:0
sub_partition_id_mask = 0000000000000100
GPGPU-Sim uArch: clock freqs: 700000000.000000:700000000.000000:700000000.000000:924000000.000000
GPGPU-Sim uArch: clock periods: 0.00000000142857142857:0.00000000142857142857:0.00000000142857142857:0.00000000108225108225
*** Initializing Memory Statistics ***
GPGPU-Sim uArch: interconnect node map (shaderID+MemID to icntID)
GPGPU-Sim uArch: Memory nodes ID start from index: 15
GPGPU-Sim uArch:    0   1   2   3   4
GPGPU-Sim uArch:    5   6   7   8   9
GPGPU-Sim uArch:   10  11  12  13  14
GPGPU-Sim uArch:   15  16  17  18  19
GPGPU-Sim uArch:   20  21  22  23  24
GPGPU-Sim uArch:   25  26
GPGPU-Sim uArch: interconnect node reverse map (icntID to shaderID+MemID)
GPGPU-Sim uArch: Memory nodes start from ID: 15
GPGPU-Sim uArch:    0   1   2   3   4
GPGPU-Sim uArch:    5   6   7   8   9
GPGPU-Sim uArch:   10  11  12  13  14
GPGPU-Sim uArch:   15  16  17  18  19
GPGPU-Sim uArch:   20  21  22  23  24
GPGPU-Sim uArch:   25  26
34d8dad98b55ee7ec7d41e3675093f3e  /code/ISPASS/NN/ispass-2009-NN
Extracting PTX file and ptxas options    1: ispass-2009-NN.1.sm_30.ptx -arch=sm_30
Extracting PTX file and ptxas options    2: ispass-2009-NN.2.sm_35.ptx -arch=sm_35
Extracting PTX file and ptxas options    3: ispass-2009-NN.3.sm_50.ptx -arch=sm_50
Extracting PTX file and ptxas options    4: ispass-2009-NN.4.sm_60.ptx -arch=sm_60
Extracting PTX file and ptxas options    5: ispass-2009-NN.5.sm_62.ptx -arch=sm_62
GPGPU-Sim uArch: performance model initialization complete.
self exe links to: /code/ISPASS/NN/ispass-2009-NN
self exe links to: /code/ISPASS/NN/ispass-2009-NN
10.1
GPGPU-Sim PTX: __cudaRegisterFatBinary, fat_cubin_handle = 1, filename=default
self exe links to: /code/ISPASS/NN/ispass-2009-NN
Running md5sum using "md5sum /code/ISPASS/NN/ispass-2009-NN "
self exe links to: /code/ISPASS/NN/ispass-2009-NN
Extracting specific PTX file named ispass-2009-NN.1.sm_30.ptx 
Extracting specific PTX file named ispass-2009-NN.2.sm_35.ptx 
Extracting specific PTX file named ispass-2009-NN.3.sm_50.ptx 
Extracting specific PTX file named ispass-2009-NN.4.sm_60.ptx 
Extracting specific PTX file named ispass-2009-NN.5.sm_62.ptx 
GPGPU-Sim PTX: __cudaRegisterFunction _Z18executeFourthLayerPfS_S_ : hostFun 0x0x401a90, fat_cubin_handle = 1
GPGPU-Sim PTX: Parsing ispass-2009-NN.1.sm_30.ptx
GPGPU-Sim PTX: allocating constant region for "kernelTemplate" from 0x100 to 0x164 (global memory space) 1
GPGPU-Sim PTX: allocating constant region for "kernelTemplate2" from 0x180 to 0x1e4 (global memory space) 2
GPGPU-Sim PTX: instruction assembly for function '_Z17executeFirstLayerPfS_S_'...   done.
GPGPU-Sim PTX: instruction assembly for function '_Z18executeSecondLayerPfS_S_'...   done.
GPGPU-Sim PTX: instruction assembly for function '_Z17executeThirdLayerPfS_S_'...   done.
GPGPU-Sim PTX: instruction assembly for function '_Z18executeFourthLayerPfS_S_'...   done.
GPGPU-Sim PTX: finished parsing EMBEDDED .ptx file ispass-2009-NN.1.sm_30.ptx
GPGPU-Sim PTX: Parsing ispass-2009-NN.2.sm_35.ptx
GPGPU-Sim PTX: Warning kernelTemplate was declared previous at ispass-2009-NN.1.sm_30.ptx:14 skipping new declaration
GPGPU-Sim PTX: Warning kernelTemplate2 was declared previous at ispass-2009-NN.1.sm_30.ptx:15 skipping new declaration
GPGPU-Sim PTX: Warning %p0 was declared previous at ispass-2009-NN.1.sm_30.ptx:23 skipping new declaration
GPGPU-Sim PTX: Warning %p1 was declared previous at ispass-2009-NN.1.sm_30.ptx:23 skipping new declaration
GPGPU-Sim PTX: Warning %p2 was declared previous at ispass-2009-NN.1.sm_30.ptx:23 skipping new declaration
GPGPU-Sim PTX: Warning %p3 was declared previous at ispass-2009-NN.1.sm_30.ptx:23 skipping new declaration
GPGPU-Sim PTX: Warning %f0 was declared previous at ispass-2009-NN.1.sm_30.ptx:24 skipping new declaration
GPGPU-Sim PTX: Warning %f1 was declared previous at ispass-2009-NN.1.sm_30.ptx:24 skipping new declaration
GPGPU-Sim PTX: Warning %f2 was declared previous at ispass-2009-NN.1.sm_30.ptx:24 skipping new declaration
GPGPU-Sim PTX: Warning %f3 was declared previous at ispass-2009-NN.1.sm_30.ptx:24 skipping new declaration
GPGPU-Sim PTX: Warning %f4 was declared previous at ispass-2009-NN.1.sm_30.ptx:24 skipping new declaration
GPGPU-Sim PTX: Warning %f5 was declared previous at ispass-2009-NN.1.sm_30.ptx:24 skipping new declaration
GPGPU-Sim PTX: Warning %f6 was declared previous at ispass-2009-NN.1.sm_30.ptx:24 skipping new declaration
GPGPU-Sim PTX: Warning %f7 was declared previous at ispass-2009-NN.1.sm_30.ptx:24 skipping new declaration
GPGPU-Sim PTX: Warning %f8 was declared previous at ispass-2009-NN.1.sm_30.ptx:24 skipping new declaration
GPGPU-Sim PTX: Warning %f9 was declared previous at ispass-2009-NN.1.sm_30.ptx:24 skipping new declaration
GPGPU-Sim PTX: Warning %f10 was declared previous at ispass-2009-NN.1.sm_30.ptx:24 skipping new declaration
GPGPU-Sim PTX: Warning %f11 was declared previous at ispass-2009-NN.1.sm_30.ptx:24 skipping new declaration
GPGPU-Sim PTX: Warning %f12 was declared previous at ispass-2009-NN.1.sm_30.ptx:24 skipping new declaration
GPGPU-Sim PTX: Warning %f13 was declared previous at ispass-2009-NN.1.sm_30.ptx:24 skipping new declaration
GPGPU-Sim PTX: Warning %f14 was declared previous at ispass-2009-NN.1.sm_30.ptx:24 skipping new declaration
GPGPU-Sim PTX: Warning %f15 was declared previous at ispass-2009-NN.1.sm_30.ptx:24 skipping new declaration
GPGPU-Sim PTX: Warning %f16 was declared previous at ispass-2009-NN.1.sm_30.ptx:24 skipping new declaration
GPGPU-Sim PTX: Warning %f17 was declared previous at ispass-2009-NN.1.sm_30.ptx:24 skipping new declaration
GPGPU-Sim PTX: Warning %f18 was declared previous at ispass-2009-NN.1.sm_30.ptx:24 skipping new declaration
GPGPU-Sim PTX: Warning %f19 was declared previous at ispass-2009-NN.1.sm_30.ptx:24 skipping new declaration
GPGPU-Sim PTX: Warning %f20 was declared previous at ispass-2009-NN.1.sm_30.ptx:24 skipping new declaration
GPGPU-Sim PTX: Warning %f21 was declared previous at ispass-2009-NN.1.sm_30.ptx:24 skipping new declaration
GPGPU-Sim PTX: Warning %f22 was declared previous at ispass-2009-NN.1.sm_30.ptx:24 skipping new declaration
GPGPU-Sim PTX: Warning %f23 was declared previous at ispass-2009-NN.1.sm_30.ptx:24 skipping new declaration
GPGPU-Sim PTX: Warning %f24 was declared previous at ispass-2009-NN.1.sm_30.ptx:24 skipping new declaration
GPGPU-Sim PTX: Warning %f25 was declared previous at ispass-2009-NN.1.sm_30.ptx:24 skipping new declaration
GPGPU-Sim PTX: Warning %f26 was declared previous at ispass-2009-NN.1.sm_30.ptx:24 skipping new declaration
GPGPU-Sim PTX: Warning %f27 was declared previous at ispass-2009-NN.1.sm_30.ptx:24 skipping new declaration
GPGPU-Sim PTX: Warning %f28 was declared previous at ispass-2009-NN.1.sm_30.ptx:24 skipping new declaration
GPGPU-Sim PTX: Warning %f29 was declared previous at ispass-2009-NN.1.sm_30.ptx:24 skipping new declaration
GPGPU-Sim PTX: Warning %f30 was declared previous at ispass-2009-NN.1.sm_30.ptx:24 skipping new declaration
GPGPU-Sim PTX: Warning %f31 was declared previous at ispass-2009-NN.1.sm_30.ptx:24 skipping new declaration
GPGPU-Sim PTX: Warning %f32 was declared previous at ispass-2009-NN.1.sm_30.ptx:24 skipping new declaration
GPGPU-Sim PTX: Warning %f33 was declared previous at ispass-2009-NN.1.sm_30.ptx:24 skipping new declaration
GPGPU-Sim PTX: Warning %f34 was declared previous at ispass-2009-NN.1.sm_30.ptx:24 skipping new declaration
GPGPU-Sim PTX: Warning %f35 was declared previous at ispass-2009-NN.1.sm_30.ptx:24 skipping new declaration
GPGPU-Sim PTX: Warning %f36 was declared previous at ispass-2009-NN.1.sm_30.ptx:24 skipping new declaration
GPGPU-Sim PTX: Warning %f37 was declared previous at ispass-2009-NN.1.sm_30.ptx:24 skipping new declaration
GPGPU-Sim PTX: Warning %f38 was declared previous at ispass-2009-NN.1.sm_30.ptx:24 skipping new declaration
GPGPU-Sim PTX: Warning %f39 was declared previous at ispass-2009-NN.1.sm_30.ptx:24 skipping new declaration
GPGPU-Sim PTX: Warning %f40 was declared previous at ispass-2009-NN.1.sm_30.ptx:24 skipping new declaration
GPGPU-Sim PTX: Warning %f41 was declared previous at ispass-2009-NN.1.sm_30.ptx:24 skipping new declaration
GPGPU-Sim PTX: Warning %f42 was declared previous at ispass-2009-NN.1.sm_30.ptx:24 skipping new declaration
GPGPU-Sim PTX: Warning %f43 was declared previous at ispass-2009-NN.1.sm_30.ptx:24 skipping new declaration
GPGPU-Sim PTX: Warning %f44 was declared previous at ispass-2009-NN.1.sm_30.ptx:24 skipping new declaration
GPGPU-Sim PTX: Warning %f45 was declared previous at ispass-2009-NN.1.sm_30.ptx:24 skipping new declaration
GPGPU-Sim PTX: Warning %f46 was declared previous at ispass-2009-NN.1.sm_30.ptx:24 skipping new declaration
GPGPU-Sim PTX: Warning %f47 was declared previous at ispass-2009-NN.1.sm_30.ptx:24 skipping new declaration
GPGPU-Sim PTX: Warning %f48 was declared previous at ispass-2009-NN.1.sm_30.ptx:24 skipping new declaration
GPGPU-Sim PTX: Warning %f49 was declared previous at ispass-2009-NN.1.sm_30.ptx:24 skipping new declaration
GPGPU-Sim PTX: Warning %f50 was declared previous at ispass-2009-NN.1.sm_30.ptx:24 skipping new declaration
GPGPU-Sim PTX: Warning %f51 was declared previous at ispass-2009-NN.1.sm_30.ptx:24 skipping new declaration
GPGPU-Sim PTX: Warning %f52 was declared previous at ispass-2009-NN.1.sm_30.ptx:24 skipping new declaration
GPGPU-Sim PTX: Warning %f53 was declared previous at ispass-2009-NN.1.sm_30.ptx:24 skipping new declaration
GPGPU-Sim PTX: Warning %f54 was declared previous at ispass-2009-NN.1.sm_30.ptx:24 skipping new declaration
GPGPU-Sim PTX: Warning %f55 was declared previous at ispass-2009-NN.1.sm_30.ptx:24 skipping new declaration
GPGPU-Sim PTX: Warning %f56 was declared previous at ispass-2009-NN.1.sm_30.ptx:24 skipping new declaration
GPGPU-Sim PTX: Warning %f57 was declared previous at ispass-2009-NN.1.sm_30.ptx:24 skipping new declaration
GPGPU-Sim PTX: Warning %f58 was declared previous at ispass-2009-NN.1.sm_30.ptx:24 skipping new declaration
GPGPU-Sim PTX: Warning %f59 was declared previous at ispass-2009-NN.1.sm_30.ptx:24 skipping new declaration
GPGPU-Sim PTX: Warning %f60 was declared previous at ispass-2009-NN.1.sm_30.ptx:24 skipping new declaration
GPGPU-Sim PTX: Warning %f61 was declared previous at ispass-2009-NN.1.sm_30.ptx:24 skipping new declaration
GPGPU-Sim PTX: Warning %f62 was declared previous at ispass-2009-NN.1.sm_30.ptx:24 skipping new declaration
GPGPU-Sim PTX: Warning %f63 was declared previous at ispass-2009-NN.1.sm_30.ptx:24 skipping new declaration
GPGPU-Sim PTX: Warning %f64 was declared previous at ispass-2009-NN.1.sm_30.ptx:24 skipping new declaration
GPGPU-Sim PTX: Warning %f65 was declared previous at ispass-2009-NN.1.sm_30.ptx:24 skipping new declaration
GPGPU-Sim PTX: Warning %f66 was declared previous at ispass-2009-NN.1.sm_30.ptx:24 skipping new declaration
GPGPU-Sim PTX: Warning %f67 was declared previous at ispass-2009-NN.1.sm_30.ptx:24 skipping new declaration
GPGPU-Sim PTX: Warning %f68 was declared previous at ispass-2009-NN.1.sm_30.ptx:24 skipping new declaration
GPGPU-Sim PTX: Warning %f69 was declared previous at ispass-2009-NN.1.sm_30.ptx:24 skipping new declaration
GPGPU-Sim PTX: Warning %f70 was declared previous at ispass-2009-NN.1.sm_30.ptx:24 skipping new declaration
GPGPU-Sim PTX: Warning %f71 was declared previous at ispass-2009-NN.1.sm_30.ptx:24 skipping new declaration
GPGPU-Sim PTX: Warning %f72 was declared previous at ispass-2009-NN.1.sm_30.ptx:24 skipping new declaration
GPGPU-Sim PTX: Warning %f73 was declared previous at ispass-2009-NN.1.sm_30.ptx:24 skipping new declaration
GPGPU-Sim PTX: Warning %f74 was declared previous at ispass-2009-NN.1.sm_30.ptx:24 skipping new declaration
GPGPU-Sim PTX: Warning %f75 was declared previous at ispass-2009-NN.1.sm_30.ptx:24 skipping new declaration
GPGPU-Sim PTX: Warning %f76 was declared previous at ispass-2009-NN.1.sm_30.ptx:24 skipping new declaration
GPGPU-Sim PTX: Warning %f77 was declared previous at ispass-2009-NN.1.sm_30.ptx:24 skipping new declaration
GPGPU-Sim PTX: Warning %f78 was declared previous at ispass-2009-NN.1.sm_30.ptx:24 skipping new declaration
GPGPU-Sim PTX: Warning %f79 was declared previous at ispass-2009-NN.1.sm_30.ptx:24 skipping new declaration
GPGPU-Sim PTX: Warning %f80 was declared previous at ispass-2009-NN.1.sm_30.ptx:24 skipping new declaration
GPGPU-Sim PTX: Warning %f81 was declared previous at ispass-2009-NN.1.sm_30.ptx:24 skipping new declaration
GPGPU-Sim PTX: Warning %f82 was declared previous at ispass-2009-NN.1.sm_30.ptx:24 skipping new declaration
GPGPU-Sim PTX: Warning %f83 was declared previous at ispass-2009-NN.1.sm_30.ptx:24 skipping new declaration
GPGPU-Sim PTX: Warning %f84 was declared previous at ispass-2009-NN.1.sm_30.ptx:24 skipping new declaration
GPGPU-Sim PTX: Warning %f85 was declared previous at ispass-2009-NN.1.sm_30.ptx:24 skipping new declaration
GPGPU-Sim PTX: Warning %f86 was declared previous at ispass-2009-NN.1.sm_30.ptx:24 skipping new declaration
GPGPU-Sim PTX: Warning %f87 was declared previous at ispass-2009-NN.1.sm_30.ptx:24 skipping new declaration
GPGPU-Sim PTX: Warning %f88 was declared previous at ispass-2009-NN.1.sm_30.ptx:24 skipping new declaration
GPGPU-Sim PTX: Warning %f89 was declared previous at ispass-2009-NN.1.sm_30.ptx:24 skipping new declaration
GPGPU-Sim PTX: Warning %f90 was declared previous at ispass-2009-NN.1.sm_30.ptx:24 skipping new declaration
GPGPU-Sim PTX: Warning %f91 was declared previous at ispass-2009-NN.1.sm_30.ptx:24 skipping new declaration
GPGPU-Sim PTX: Warning %f92 was declared previous at ispass-2009-NN.1.sm_30.ptx:24 skipping new declaration
GPGPU-Sim PTX: Warning %f93 was declared previous at ispass-2009-NN.1.sm_30.ptx:24 skipping new declaration
GPGPU-Sim PTX: Warning %f94 was declared previous at ispass-2009-NN.1.sm_30.ptx:24 skipping new declaration
GPGPU-Sim PTX: Warning %f95 was declared previous at ispass-2009-NN.1.sm_30.ptx:24 skipping new declaration
GPGPU-Sim PTX: Warning %f96 was declared previous at ispass-2009-NN.1.sm_30.ptx:24 skipping new declaration
GPGPU-Sim PTX: Warning %f97 was declared previous at ispass-2009-NN.1.sm_30.ptx:24 skipping new declaration
GPGPU-Sim PTX: Warning %f98 was declared previous at ispass-2009-NN.1.sm_30.ptx:24 skipping new declaration
GPGPU-Sim PTX: Warning %f99 was declared previous at ispass-2009-NN.1.sm_30.ptx:24 skipping new declaration
GPGPU-Sim PTX: Warning %f100 was declared previous at ispass-2009-NN.1.sm_30.ptx:24 skipping new declaration
GPGPU-Sim PTX: Warning %f101 was declared previous at ispass-2009-NN.1.sm_30.ptx:24 skipping new declaration
GPGPU-Sim PTX: Warning %f102 was declared previous at ispass-2009-NN.1.sm_30.ptx:24 skipping new declaration
GPGPU-Sim PTX: Warning %f103 was declared previous at ispass-2009-NN.1.sm_30.ptx:24 skipping new declaration
GPGPU-Sim PTX: Warning %f104 was declared previous at ispass-2009-NN.1.sm_30.ptx:24 skipping new declaration
GPGPU-Sim PTX: Warning %f105 was declared previous at ispass-2009-NN.1.sm_30.ptx:24 skipping new declaration
GPGPU-Sim PTX: Warning %f106 was declared previous at ispass-2009-NN.1.sm_30.ptx:24 skipping new declaration
GPGPU-Sim PTX: Warning %f107 was declared previous at ispass-2009-NN.1.sm_30.ptx:24 skipping new declaration
GPGPU-Sim PTX: Warning %f108 was declared previous at ispass-2009-NN.1.sm_30.ptx:24 skipping new declaration
GPGPU-Sim PTX: Warning %f109 was declared previous at ispass-2009-NN.1.sm_30.ptx:24 skipping new declaration
GPGPU-Sim PTX: Warning %f110 was declared previous at ispass-2009-NN.1.sm_30.ptx:24 skipping new declaration
GPGPU-Sim PTX: Warning %r0 was declared previous at ispass-2009-NN.1.sm_30.ptx:25 skipping new declaration
GPGPU-Sim PTX: Warning %r1 was declared previous at ispass-2009-NN.1.sm_30.ptx:25 skipping new declaration
GPGPU-Sim PTX: Warning %r2 was declared previous at ispass-2009-NN.1.sm_30.ptx:25 skipping new declaration
GPGPU-Sim PTX: Warning %r3 was declared previous at ispass-2009-NN.1.sm_30.ptx:25 skipping new declaration
GPGPU-Sim PTX: Warning %r4 was declared previous at ispass-2009-NN.1.sm_30.ptx:25 skipping new declaration
GPGPU-Sim PTX: Warning %r5 was declared previous at ispass-2009-NN.1.sm_30.ptx:25 skipping new declaration
GPGPU-Sim PTX: Warning %r6 was declared previous at ispass-2009-NN.1.sm_30.ptx:25 skipping new declaration
GPGPU-Sim PTX: Warning %r7 was declared previous at ispass-2009-NN.1.sm_30.ptx:25 skipping new declaration
GPGPU-Sim PTX: Warning %r8 was declared previous at ispass-2009-NN.1.sm_30.ptx:25 skipping new declaration
GPGPU-Sim PTX: Warning %r9 was declared previous at ispass-2009-NN.1.sm_30.ptx:25 skipping new declaration
GPGPU-Sim PTX: Warning %r10 was declared previous at ispass-2009-NN.1.sm_30.ptx:25 skipping new declaration
GPGPU-Sim PTX: Warning %r11 was declared previous at ispass-2009-NN.1.sm_30.ptx:25 skipping new declaration
GPGPU-Sim PTX: Warning %r12 was declared previous at ispass-2009-NN.1.sm_30.ptx:25 skipping new declaration
GPGPU-Sim PTX: Warning %r13 was declared previous at ispass-2009-NN.1.sm_30.ptx:25 skipping new declaration
GPGPU-Sim PTX: Warning %r14 was declared previous at ispass-2009-NN.1.sm_30.ptx:25 skipping new declaration
GPGPU-Sim PTX: Warning %r15 was declared previous at ispass-2009-NN.1.sm_30.ptx:25 skipping new declaration
GPGPU-Sim PTX: Warning %r16 was declared previous at ispass-2009-NN.1.sm_30.ptx:25 skipping new declaration
GPGPU-Sim PTX: Warning %r17 was declared previous at ispass-2009-NN.1.sm_30.ptx:25 skipping new declaration
GPGPU-Sim PTX: Warning %r18 was declared previous at ispass-2009-NN.1.sm_30.ptx:25 skipping new declaration
GPGPU-Sim PTX: Warning %r19 was declared previous at ispass-2009-NN.1.sm_30.ptx:25 skipping new declaration
GPGPU-Sim PTX: Warning %r20 was declared previous at ispass-2009-NN.1.sm_30.ptx:25 skipping new declaration
GPGPU-Sim PTX: Warning %r21 was declared previous at ispass-2009-NN.1.sm_30.ptx:25 skipping new declaration
GPGPU-Sim PTX: Warning %r22 was declared previous at ispass-2009-NN.1.sm_30.ptx:25 skipping new declaration
GPGPU-Sim PTX: Warning %r23 was declared previous at ispass-2009-NN.1.sm_30.ptx:25 skipping new declaration
GPGPU-Sim PTX: Warning %r24 was declared previous at ispass-2009-NN.1.sm_30.ptx:25 skipping new declaration
GPGPU-Sim PTX: Warning %r25 was declared previous at ispass-2009-NN.1.sm_30.ptx:25 skipping new declaration
GPGPU-Sim PTX: Warning %r26 was declared previous at ispass-2009-NN.1.sm_30.ptx:25 skipping new declaration
GPGPU-Sim PTX: Warning %r27 was declared previous at ispass-2009-NN.1.sm_30.ptx:25 skipping new declaration
GPGPU-Sim PTX: Warning %r28 was declared previous at ispass-2009-NN.1.sm_30.ptx:25 skipping new declaration
GPGPU-Sim PTX: Warning %r29 was declared previous at ispass-2009-NN.1.sm_30.ptx:25 skipping new declaration
GPGPU-Sim PTX: Warning %r30 was declared previous at ispass-2009-NN.1.sm_30.ptx:25 skipping new declaration
GPGPU-Sim PTX: Warning %r31 was declared previous at ispass-2009-NN.1.sm_30.ptx:25 skipping new declaration
GPGPU-Sim PTX: Warning %r32 was declared previous at ispass-2009-NN.1.sm_30.ptx:25 skipping new declaration
GPGPU-Sim PTX: Warning %r33 was declared previous at ispass-2009-NN.1.sm_30.ptx:25 skipping new declaration
GPGPU-Sim PTX: Warning %r34 was declared previous at ispass-2009-NN.1.sm_30.ptx:25 skipping new declaration
GPGPU-Sim PTX: Warning %r35 was declared previous at ispass-2009-NN.1.sm_30.ptx:25 skipping new declaration
GPGPU-Sim PTX: Warning %r36 was declared previous at ispass-2009-NN.1.sm_30.ptx:25 skipping new declaration
GPGPU-Sim PTX: Warning %r37 was declared previous at ispass-2009-NN.1.sm_30.ptx:25 skipping new declaration
GPGPU-Sim PTX: Warning %r38 was declared previous at ispass-2009-NN.1.sm_30.ptx:25 skipping new declaration
GPGPU-Sim PTX: Warning %r39 was declared previous at ispass-2009-NN.1.sm_30.ptx:25 skipping new declaration
GPGPU-Sim PTX: Warning %r40 was declared previous at ispass-2009-NN.1.sm_30.ptx:25 skipping new declaration
GPGPU-Sim PTX: Warning %r41 was declared previous at ispass-2009-NN.1.sm_30.ptx:25 skipping new declaration
GPGPU-Sim PTX: Warning %r42 was declared previous at ispass-2009-NN.1.sm_30.ptx:25 skipping new declaration
GPGPU-Sim PTX: Warning %r43 was declared previous at ispass-2009-NN.1.sm_30.ptx:25 skipping new declaration
GPGPU-Sim PTX: Warning %r44 was declared previous at ispass-2009-NN.1.sm_30.ptx:25 skipping new declaration
GPGPU-Sim PTX: Warning %r45 was declared previous at ispass-2009-NN.1.sm_30.ptx:25 skipping new declaration
GPGPU-Sim PTX: Warning %r46 was declared previous at ispass-2009-NN.1.sm_30.ptx:25 skipping new declaration
GPGPU-Sim PTX: Warning %r47 was declared previous at ispass-2009-NN.1.sm_30.ptx:25 skipping new declaration
GPGPU-Sim PTX: Warning %r48 was declared previous at ispass-2009-NN.1.sm_30.ptx:25 skipping new declaration
GPGPU-Sim PTX: Warning %r49 was declared previous at ispass-2009-NN.1.sm_30.ptx:25 skipping new declaration
GPGPU-Sim PTX: Warning %r50 was declared previous at ispass-2009-NN.1.sm_30.ptx:25 skipping new declaration
GPGPU-Sim PTX: Warning %r51 was declared previous at ispass-2009-NN.1.sm_30.ptx:25 skipping new declaration
GPGPU-Sim PTX: Warning %r52 was declared previous at ispass-2009-NN.1.sm_30.ptx:25 skipping new declaration
GPGPU-Sim PTX: Warning %r53 was declared previous at ispass-2009-NN.1.sm_30.ptx:25 skipping new declaration
GPGPU-Sim PTX: Warning %r54 was declared previous at ispass-2009-NN.1.sm_30.ptx:25 skipping new declaration
GPGPU-Sim PTX: Warning %r55 was declared previous at ispass-2009-NN.1.sm_30.ptx:25 skipping new declaration
GPGPU-Sim PTX: Warning %r56 was declared previous at ispass-2009-NN.1.sm_30.ptx:25 skipping new declaration
GPGPU-Sim PTX: Warning %r57 was declared previous at ispass-2009-NN.1.sm_30.ptx:25 skipping new declaration
GPGPU-Sim PTX: Warning %r58 was declared previous at ispass-2009-NN.1.sm_30.ptx:25 skipping new declaration
GPGPU-Sim PTX: Warning %r59 was declared previous at ispass-2009-NN.1.sm_30.ptx:25 skipping new declaration
GPGPU-Sim PTX: Warning %r60 was declared previous at ispass-2009-NN.1.sm_30.ptx:25 skipping new declaration
GPGPU-Sim PTX: Warning %r61 was declared previous at ispass-2009-NN.1.sm_30.ptx:25 skipping new declaration
GPGPU-Sim PTX: Warning %r62 was declared previous at ispass-2009-NN.1.sm_30.ptx:25 skipping new declaration
GPGPU-Sim PTX: Warning %r63 was declared previous at ispass-2009-NN.1.sm_30.ptx:25 skipping new declaration
GPGPU-Sim PTX: Warning %r64 was declared previous at ispass-2009-NN.1.sm_30.ptx:25 skipping new declaration
GPGPU-Sim PTX: Warning %r65 was declared previous at ispass-2009-NN.1.sm_30.ptx:25 skipping new declaration
GPGPU-Sim PTX: Warning %r66 was declared previous at ispass-2009-NN.1.sm_30.ptx:25 skipping new declaration
GPGPU-Sim PTX: Warning %fd0 was declared previous at ispass-2009-NN.1.sm_30.ptx:26 skipping new declaration
GPGPU-Sim PTX: Warning %fd1 was declared previous at ispass-2009-NN.1.sm_30.ptx:26 skipping new declaration
GPGPU-Sim PTX: Warning %fd2 was declared previous at ispass-2009-NN.1.sm_30.ptx:26 skipping new declaration
GPGPU-Sim PTX: Warning %fd3 was declared previous at ispass-2009-NN.1.sm_30.ptx:26 skipping new declaration
GPGPU-Sim PTX: Warning %fd4 was declared previous at ispass-2009-NN.1.sm_30.ptx:26 skipping new declaration
GPGPU-Sim PTX: Warning %rd0 was declared previous at ispass-2009-NN.1.sm_30.ptx:27 skipping new declaration
GPGPU-Sim PTX: Warning %rd1 was declared previous at ispass-2009-NN.1.sm_30.ptx:27 skipping new declaration
GPGPU-Sim PTX: Warning %rd2 was declared previous at ispass-2009-NN.1.sm_30.ptx:27 skipping new declaration
GPGPU-Sim PTX: Warning %rd3 was declared previous at ispass-2009-NN.1.sm_30.ptx:27 skipping new declaration
GPGPU-Sim PTX: Warning %rd4 was declared previous at ispass-2009-NN.1.sm_30.ptx:27 skipping new declaration
GPGPU-Sim PTX: Warning %rd5 was declared previous at ispass-2009-NN.1.sm_30.ptx:27 skipping new declaration
GPGPU-Sim PTX: Warning %rd6 was declared previous at ispass-2009-NN.1.sm_30.ptx:27 skipping new declaration
GPGPU-Sim PTX: Warning %rd7 was declared previous at ispass-2009-NN.1.sm_30.ptx:27 skipping new declaration
GPGPU-Sim PTX: Warning %rd8 was declared previous at ispass-2009-NN.1.sm_30.ptx:27 skipping new declaration
GPGPU-Sim PTX: Warning %rd9 was declared previous at ispass-2009-NN.1.sm_30.ptx:27 skipping new declaration
GPGPU-Sim PTX: Warning %rd10 was declared previous at ispass-2009-NN.1.sm_30.ptx:27 skipping new declaration
GPGPU-Sim PTX: Warning %rd11 was declared previous at ispass-2009-NN.1.sm_30.ptx:27 skipping new declaration
GPGPU-Sim PTX: Warning %rd12 was declared previous at ispass-2009-NN.1.sm_30.ptx:27 skipping new declaration
GPGPU-Sim PTX: Warning %rd13 was declared previous at ispass-2009-NN.1.sm_30.ptx:27 skipping new declaration
GPGPU-Sim PTX: Warning %rd14 was declared previous at ispass-2009-NN.1.sm_30.ptx:27 skipping new declaration
GPGPU-Sim PTX: Warning %rd15 was declared previous at ispass-2009-NN.1.sm_30.ptx:27 skipping new declaration
GPGPU-Sim PTX: Warning %rd16 was declared previous at ispass-2009-NN.1.sm_30.ptx:27 skipping new declaration
GPGPU-Sim PTX: Warning %rd17 was declared previous at ispass-2009-NN.1.sm_30.ptx:27 skipping new declaration
GPGPU-Sim PTX: Warning %rd18 was declared previous at ispass-2009-NN.1.sm_30.ptx:27 skipping new declaration
GPGPU-Sim PTX: Warning %rd19 was declared previous at ispass-2009-NN.1.sm_30.ptx:27 skipping new declaration
GPGPU-Sim PTX: Warning %rd20 was declared previous at ispass-2009-NN.1.sm_30.ptx:27 skipping new declaration
GPGPU-Sim PTX: Warning %rd21 was declared previous at ispass-2009-NN.1.sm_30.ptx:27 skipping new declaration
GPGPU-Sim PTX: Warning %rd22 was declared previous at ispass-2009-NN.1.sm_30.ptx:27 skipping new declaration
GPGPU-Sim PTX: Warning %rd23 was declared previous at ispass-2009-NN.1.sm_30.ptx:27 skipping new declaration
GPGPU-Sim PTX: Warning %rd24 was declared previous at ispass-2009-NN.1.sm_30.ptx:27 skipping new declaration
GPGPU-Sim PTX: Warning %rd25 was declared previous at ispass-2009-NN.1.sm_30.ptx:27 skipping new declaration
GPGPU-Sim PTX: Warning %rd26 was declared previous at ispass-2009-NN.1.sm_30.ptx:27 skipping new declaration
GPGPU-Sim PTX: Warning %rd27 was declared previous at ispass-2009-NN.1.sm_30.ptx:27 skipping new declaration
GPGPU-Sim PTX: Warning %rd28 was declared previous at ispass-2009-NN.1.sm_30.ptx:27 skipping new declaration
GPGPU-Sim PTX: Warning %rd29 was declared previous at ispass-2009-NN.1.sm_30.ptx:27 skipping new declaration
GPGPU-Sim PTX: Warning %rd30 was declared previous at ispass-2009-NN.1.sm_30.ptx:27 skipping new declaration
GPGPU-Sim PTX: Warning %rd31 was declared previous at ispass-2009-NN.1.sm_30.ptx:27 skipping new declaration
GPGPU-Sim PTX: Warning %rd32 was declared previous at ispass-2009-NN.1.sm_30.ptx:27 skipping new declaration
GPGPU-Sim PTX: Warning %rd33 was declared previous at ispass-2009-NN.1.sm_30.ptx:27 skipping new declaration
GPGPU-Sim PTX: Warning %rd34 was declared previous at ispass-2009-NN.1.sm_30.ptx:27 skipping new declaration
GPGPU-Sim PTX: Warning %rd35 was declared previous at ispass-2009-NN.1.sm_30.ptx:27 skipping new declaration
GPGPU-Sim PTX: Warning %rd36 was declared previous at ispass-2009-NN.1.sm_30.ptx:27 skipping new declaration
GPGPU-Sim PTX: Warning %rd37 was declared previous at ispass-2009-NN.1.sm_30.ptx:27 skipping new declaration
GPGPU-Sim PTX: Warning %rd38 was declared previous at ispass-2009-NN.1.sm_30.ptx:27 skipping new declaration
GPGPU-Sim PTX: Warning %rd39 was declared previous at ispass-2009-NN.1.sm_30.ptx:27 skipping new declaration
GPGPU-Sim PTX: Warning %rd40 was declared previous at ispass-2009-NN.1.sm_30.ptx:27 skipping new declaration
GPGPU-Sim PTX: Warning %rd41 was declared previous at ispass-2009-NN.1.sm_30.ptx:27 skipping new declaration
GPGPU-Sim PTX: Warning %rd42 was declared previous at ispass-2009-NN.1.sm_30.ptx:27 skipping new declaration
GPGPU-Sim PTX: Warning %rd43 was declared previous at ispass-2009-NN.1.sm_30.ptx:27 skipping new declaration
GPGPU-Sim PTX: Warning %rd44 was declared previous at ispass-2009-NN.1.sm_30.ptx:27 skipping new declaration
GPGPU-Sim PTX: Warning %rd45 was declared previous at ispass-2009-NN.1.sm_30.ptx:27 skipping new declaration
GPGPU-Sim PTX: Warning %rd46 was declared previous at ispass-2009-NN.1.sm_30.ptx:27 skipping new declaration
GPGPU-Sim PTX: Warning %rd47 was declared previous at ispass-2009-NN.1.sm_30.ptx:27 skipping new declaration
GPGPU-Sim PTX: Warning %rd48 was declared previous at ispass-2009-NN.1.sm_30.ptx:27 skipping new declaration
GPGPU-Sim PTX: Warning %rd49 was declared previous at ispass-2009-NN.1.sm_30.ptx:27 skipping new declaration
GPGPU-Sim PTX: Warning %rd50 was declared previous at ispass-2009-NN.1.sm_30.ptx:27 skipping new declaration
GPGPU-Sim PTX: Warning %rd51 was declared previous at ispass-2009-NN.1.sm_30.ptx:27 skipping new declaration
GPGPU-Sim PTX: Warning %rd52 was declared previous at ispass-2009-NN.1.sm_30.ptx:27 skipping new declaration
GPGPU-Sim PTX: Warning %rd53 was declared previous at ispass-2009-NN.1.sm_30.ptx:27 skipping new declaration
GPGPU-Sim PTX: Warning %rd54 was declared previous at ispass-2009-NN.1.sm_30.ptx:27 skipping new declaration
GPGPU-Sim PTX: Warning %rd55 was declared previous at ispass-2009-NN.1.sm_30.ptx:27 skipping new declaration
GPGPU-Sim PTX: Warning %rd56 was declared previous at ispass-2009-NN.1.sm_30.ptx:27 skipping new declaration
GPGPU-Sim PTX: Warning %rd57 was declared previous at ispass-2009-NN.1.sm_30.ptx:27 skipping new declaration
GPGPU-Sim PTX: Warning %rd58 was declared previous at ispass-2009-NN.1.sm_30.ptx:27 skipping new declaration
GPGPU-Sim PTX: Warning %rd59 was declared previous at ispass-2009-NN.1.sm_30.ptx:27 skipping new declaration
GPGPU-Sim PTX: Warning %rd60 was declared previous at ispass-2009-NN.1.sm_30.ptx:27 skipping new declaration
GPGPU-Sim PTX: instruction assembly for function '_Z17executeFirstLayerPfS_S_'...   done.
GPGPU-Sim PTX: Warning %p0 was declared previous at ispass-2009-NN.1.sm_30.ptx:293 skipping new declaration
GPGPU-Sim PTX: Warning %p1 was declared previous at ispass-2009-NN.1.sm_30.ptx:293 skipping new declaration
GPGPU-Sim PTX: Warning %p2 was declared previous at ispass-2009-NN.1.sm_30.ptx:293 skipping new declaration
GPGPU-Sim PTX: Warning %p3 was declared previous at ispass-2009-NN.1.sm_30.ptx:293 skipping new declaration
GPGPU-Sim PTX: Warning %p4 was declared previous at ispass-2009-NN.1.sm_30.ptx:293 skipping new declaration
GPGPU-Sim PTX: Warning %f0 was declared previous at ispass-2009-NN.1.sm_30.ptx:294 skipping new declaration
GPGPU-Sim PTX: Warning %f1 was declared previous at ispass-2009-NN.1.sm_30.ptx:294 skipping new declaration
GPGPU-Sim PTX: Warning %f2 was declared previous at ispass-2009-NN.1.sm_30.ptx:294 skipping new declaration
GPGPU-Sim PTX: Warning %f3 was declared previous at ispass-2009-NN.1.sm_30.ptx:294 skipping new declaration
GPGPU-Sim PTX: Warning %f4 was declared previous at ispass-2009-NN.1.sm_30.ptx:294 skipping new declaration
GPGPU-Sim PTX: Warning %f5 was declared previous at ispass-2009-NN.1.sm_30.ptx:294 skipping new declaration
GPGPU-Sim PTX: Warning %f6 was declared previous at ispass-2009-NN.1.sm_30.ptx:294 skipping new declaration
GPGPU-Sim PTX: Warning %f7 was declared previous at ispass-2009-NN.1.sm_30.ptx:294 skipping new declaration
GPGPU-Sim PTX: Warning %f8 was declared previous at ispass-2009-NN.1.sm_30.ptx:294 skipping new declaration
GPGPU-Sim PTX: Warning %f9 was declared previous at ispass-2009-NN.1.sm_30.ptx:294 skipping new declaration
GPGPU-Sim PTX: Warning %f10 was declared previous at ispass-2009-NN.1.sm_30.ptx:294 skipping new declaration
GPGPU-Sim PTX: Warning %f11 was declared previous at ispass-2009-NN.1.sm_30.ptx:294 skipping new declaration
GPGPU-Sim PTX: Warning %f12 was declared previous at ispass-2009-NN.1.sm_30.ptx:294 skipping new declaration
GPGPU-Sim PTX: Warning %f13 was declared previous at ispass-2009-NN.1.sm_30.ptx:294 skipping new declaration
GPGPU-Sim PTX: Warning %f14 was declared previous at ispass-2009-NN.1.sm_30.ptx:294 skipping new declaration
GPGPU-Sim PTX: Warning %f15 was declared previous at ispass-2009-NN.1.sm_30.ptx:294 skipping new declaration
GPGPU-Sim PTX: Warning %f16 was declared previous at ispass-2009-NN.1.sm_30.ptx:294 skipping new declaration
GPGPU-Sim PTX: Warning %f17 was declared previous at ispass-2009-NN.1.sm_30.ptx:294 skipping new declaration
GPGPU-Sim PTX: Warning %f18 was declared previous at ispass-2009-NN.1.sm_30.ptx:294 skipping new declaration
GPGPU-Sim PTX: Warning %f19 was declared previous at ispass-2009-NN.1.sm_30.ptx:294 skipping new declaration
GPGPU-Sim PTX: Warning %f20 was declared previous at ispass-2009-NN.1.sm_30.ptx:294 skipping new declaration
GPGPU-Sim PTX: Warning %f21 was declared previous at ispass-2009-NN.1.sm_30.ptx:294 skipping new declaration
GPGPU-Sim PTX: Warning %f22 was declared previous at ispass-2009-NN.1.sm_30.ptx:294 skipping new declaration
GPGPU-Sim PTX: Warning %f23 was declared previous at ispass-2009-NN.1.sm_30.ptx:294 skipping new declaration
GPGPU-Sim PTX: Warning %f24 was declared previous at ispass-2009-NN.1.sm_30.ptx:294 skipping new declaration
GPGPU-Sim PTX: Warning %f25 was declared previous at ispass-2009-NN.1.sm_30.ptx:294 skipping new declaration
GPGPU-Sim PTX: Warning %f26 was declared previous at ispass-2009-NN.1.sm_30.ptx:294 skipping new declaration
GPGPU-Sim PTX: Warning %f27 was declared previous at ispass-2009-NN.1.sm_30.ptx:294 skipping new declaration
GPGPU-Sim PTX: Warning %f28 was declared previous at ispass-2009-NN.1.sm_30.ptx:294 skipping new declaration
GPGPU-Sim PTX: Warning %f29 was declared previous at ispass-2009-NN.1.sm_30.ptx:294 skipping new declaration
GPGPU-Sim PTX: Warning %f30 was declared previous at ispass-2009-NN.1.sm_30.ptx:294 skipping new declaration
GPGPU-Sim PTX: Warning %f31 was declared previous at ispass-2009-NN.1.sm_30.ptx:294 skipping new declaration
GPGPU-Sim PTX: Warning %f32 was declared previous at ispass-2009-NN.1.sm_30.ptx:294 skipping new declaration
GPGPU-Sim PTX: Warning %f33 was declared previous at ispass-2009-NN.1.sm_30.ptx:294 skipping new declaration
GPGPU-Sim PTX: Warning %f34 was declared previous at ispass-2009-NN.1.sm_30.ptx:294 skipping new declaration
GPGPU-Sim PTX: Warning %f35 was declared previous at ispass-2009-NN.1.sm_30.ptx:294 skipping new declaration
GPGPU-Sim PTX: Warning %f36 was declared previous at ispass-2009-NN.1.sm_30.ptx:294 skipping new declaration
GPGPU-Sim PTX: Warning %f37 was declared previous at ispass-2009-NN.1.sm_30.ptx:294 skipping new declaration
GPGPU-Sim PTX: Warning %f38 was declared previous at ispass-2009-NN.1.sm_30.ptx:294 skipping new declaration
GPGPU-Sim PTX: Warning %f39 was declared previous at ispass-2009-NN.1.sm_30.ptx:294 skipping new declaration
GPGPU-Sim PTX: Warning %f40 was declared previous at ispass-2009-NN.1.sm_30.ptx:294 skipping new declaration
GPGPU-Sim PTX: Warning %f41 was declared previous at ispass-2009-NN.1.sm_30.ptx:294 skipping new declaration
GPGPU-Sim PTX: Warning %f42 was declared previous at ispass-2009-NN.1.sm_30.ptx:294 skipping new declaration
GPGPU-Sim PTX: Warning %f43 was declared previous at ispass-2009-NN.1.sm_30.ptx:294 skipping new declaration
GPGPU-Sim PTX: Warning %f44 was declared previous at ispass-2009-NN.1.sm_30.ptx:294 skipping new declaration
GPGPU-Sim PTX: Warning %f45 was declared previous at ispass-2009-NN.1.sm_30.ptx:294 skipping new declaration
GPGPU-Sim PTX: Warning %f46 was declared previous at ispass-2009-NN.1.sm_30.ptx:294 skipping new declaration
GPGPU-Sim PTX: Warning %f47 was declared previous at ispass-2009-NN.1.sm_30.ptx:294 skipping new declaration
GPGPU-Sim PTX: Warning %f48 was declared previous at ispass-2009-NN.1.sm_30.ptx:294 skipping new declaration
GPGPU-Sim PTX: Warning %f49 was declared previous at ispass-2009-NN.1.sm_30.ptx:294 skipping new declaration
GPGPU-Sim PTX: Warning %f50 was declared previous at ispass-2009-NN.1.sm_30.ptx:294 skipping new declaration
GPGPU-Sim PTX: Warning %f51 was declared previous at ispass-2009-NN.1.sm_30.ptx:294 skipping new declaration
GPGPU-Sim PTX: Warning %f52 was declared previous at ispass-2009-NN.1.sm_30.ptx:294 skipping new declaration
GPGPU-Sim PTX: Warning %f53 was declared previous at ispass-2009-NN.1.sm_30.ptx:294 skipping new declaration
GPGPU-Sim PTX: Warning %f54 was declared previous at ispass-2009-NN.1.sm_30.ptx:294 skipping new declaration
GPGPU-Sim PTX: Warning %f55 was declared previous at ispass-2009-NN.1.sm_30.ptx:294 skipping new declaration
GPGPU-Sim PTX: Warning %r0 was declared previous at ispass-2009-NN.1.sm_30.ptx:295 skipping new declaration
GPGPU-Sim PTX: Warning %r1 was declared previous at ispass-2009-NN.1.sm_30.ptx:295 skipping new declaration
GPGPU-Sim PTX: Warning %r2 was declared previous at ispass-2009-NN.1.sm_30.ptx:295 skipping new declaration
GPGPU-Sim PTX: Warning %r3 was declared previous at ispass-2009-NN.1.sm_30.ptx:295 skipping new declaration
GPGPU-Sim PTX: Warning %r4 was declared previous at ispass-2009-NN.1.sm_30.ptx:295 skipping new declaration
GPGPU-Sim PTX: Warning %r5 was declared previous at ispass-2009-NN.1.sm_30.ptx:295 skipping new declaration
GPGPU-Sim PTX: Warning %r6 was declared previous at ispass-2009-NN.1.sm_30.ptx:295 skipping new declaration
GPGPU-Sim PTX: Warning %r7 was declared previous at ispass-2009-NN.1.sm_30.ptx:295 skipping new declaration
GPGPU-Sim PTX: Warning %r8 was declared previous at ispass-2009-NN.1.sm_30.ptx:295 skipping new declaration
GPGPU-Sim PTX: Warning %r9 was declared previous at ispass-2009-NN.1.sm_30.ptx:295 skipping new declaration
GPGPU-Sim PTX: Warning %r10 was declared previous at ispass-2009-NN.1.sm_30.ptx:295 skipping new declaration
GPGPU-Sim PTX: Warning %r11 was declared previous at ispass-2009-NN.1.sm_30.ptx:295 skipping new declaration
GPGPU-Sim PTX: Warning %r12 was declared previous at ispass-2009-NN.1.sm_30.ptx:295 skipping new declaration
GPGPU-Sim PTX: Warning %r13 was declared previous at ispass-2009-NN.1.sm_30.ptx:295 skipping new declaration
GPGPU-Sim PTX: Warning %r14 was declared previous at ispass-2009-NN.1.sm_30.ptx:295 skipping new declaration
GPGPU-Sim PTX: Warning %r15 was declared previous at ispass-2009-NN.1.sm_30.ptx:295 skipping new declaration
GPGPU-Sim PTX: Warning %r16 was declared previous at ispass-2009-NN.1.sm_30.ptx:295 skipping new declaration
GPGPU-Sim PTX: Warning %r17 was declared previous at ispass-2009-NN.1.sm_30.ptx:295 skipping new declaration
GPGPU-Sim PTX: Warning %r18 was declared previous at ispass-2009-NN.1.sm_30.ptx:295 skipping new declaration
GPGPU-Sim PTX: Warning %r19 was declared previous at ispass-2009-NN.1.sm_30.ptx:295 skipping new declaration
GPGPU-Sim PTX: Warning %r20 was declared previous at ispass-2009-NN.1.sm_30.ptx:295 skipping new declaration
GPGPU-Sim PTX: Warning %r21 was declared previous at ispass-2009-NN.1.sm_30.ptx:295 skipping new declaration
GPGPU-Sim PTX: Warning %r22 was declared previous at ispass-2009-NN.1.sm_30.ptx:295 skipping new declaration
GPGPU-Sim PTX: Warning %r23 was declared previous at ispass-2009-NN.1.sm_30.ptx:295 skipping new declaration
GPGPU-Sim PTX: Warning %r24 was declared previous at ispass-2009-NN.1.sm_30.ptx:295 skipping new declaration
GPGPU-Sim PTX: Warning %r25 was declared previous at ispass-2009-NN.1.sm_30.ptx:295 skipping new declaration
GPGPU-Sim PTX: Warning %r26 was declared previous at ispass-2009-NN.1.sm_30.ptx:295 skipping new declaration
GPGPU-Sim PTX: Warning %r27 was declared previous at ispass-2009-NN.1.sm_30.ptx:295 skipping new declaration
GPGPU-Sim PTX: Warning %r28 was declared previous at ispass-2009-NN.1.sm_30.ptx:295 skipping new declaration
GPGPU-Sim PTX: Warning %r29 was declared previous at ispass-2009-NN.1.sm_30.ptx:295 skipping new declaration
GPGPU-Sim PTX: Warning %r30 was declared previous at ispass-2009-NN.1.sm_30.ptx:295 skipping new declaration
GPGPU-Sim PTX: Warning %fd0 was declared previous at ispass-2009-NN.1.sm_30.ptx:296 skipping new declaration
GPGPU-Sim PTX: Warning %fd1 was declared previous at ispass-2009-NN.1.sm_30.ptx:296 skipping new declaration
GPGPU-Sim PTX: Warning %fd2 was declared previous at ispass-2009-NN.1.sm_30.ptx:296 skipping new declaration
GPGPU-Sim PTX: Warning %fd3 was declared previous at ispass-2009-NN.1.sm_30.ptx:296 skipping new declaration
GPGPU-Sim PTX: Warning %fd4 was declared previous at ispass-2009-NN.1.sm_30.ptx:296 skipping new declaration
GPGPU-Sim PTX: Warning %rd0 was declared previous at ispass-2009-NN.1.sm_30.ptx:297 skipping new declaration
GPGPU-Sim PTX: Warning %rd1 was declared previous at ispass-2009-NN.1.sm_30.ptx:297 skipping new declaration
GPGPU-Sim PTX: Warning %rd2 was declared previous at ispass-2009-NN.1.sm_30.ptx:297 skipping new declaration
GPGPU-Sim PTX: Warning %rd3 was declared previous at ispass-2009-NN.1.sm_30.ptx:297 skipping new declaration
GPGPU-Sim PTX: Warning %rd4 was declared previous at ispass-2009-NN.1.sm_30.ptx:297 skipping new declaration
GPGPU-Sim PTX: Warning %rd5 was declared previous at ispass-2009-NN.1.sm_30.ptx:297 skipping new declaration
GPGPU-Sim PTX: Warning %rd6 was declared previous at ispass-2009-NN.1.sm_30.ptx:297 skipping new declaration
GPGPU-Sim PTX: Warning %rd7 was declared previous at ispass-2009-NN.1.sm_30.ptx:297 skipping new declaration
GPGPU-Sim PTX: Warning %rd8 was declared previous at ispass-2009-NN.1.sm_30.ptx:297 skipping new declaration
GPGPU-Sim PTX: Warning %rd9 was declared previous at ispass-2009-NN.1.sm_30.ptx:297 skipping new declaration
GPGPU-Sim PTX: Warning %rd10 was declared previous at ispass-2009-NN.1.sm_30.ptx:297 skipping new declaration
GPGPU-Sim PTX: Warning %rd11 was declared previous at ispass-2009-NN.1.sm_30.ptx:297 skipping new declaration
GPGPU-Sim PTX: Warning %rd12 was declared previous at ispass-2009-NN.1.sm_30.ptx:297 skipping new declaration
GPGPU-Sim PTX: Warning %rd13 was declared previous at ispass-2009-NN.1.sm_30.ptx:297 skipping new declaration
GPGPU-Sim PTX: Warning %rd14 was declared previous at ispass-2009-NN.1.sm_30.ptx:297 skipping new declaration
GPGPU-Sim PTX: Warning %rd15 was declared previous at ispass-2009-NN.1.sm_30.ptx:297 skipping new declaration
GPGPU-Sim PTX: Warning %rd16 was declared previous at ispass-2009-NN.1.sm_30.ptx:297 skipping new declaration
GPGPU-Sim PTX: Warning %rd17 was declared previous at ispass-2009-NN.1.sm_30.ptx:297 skipping new declaration
GPGPU-Sim PTX: Warning %rd18 was declared previous at ispass-2009-NN.1.sm_30.ptx:297 skipping new declaration
GPGPU-Sim PTX: Warning %rd19 was declared previous at ispass-2009-NN.1.sm_30.ptx:297 skipping new declaration
GPGPU-Sim PTX: Warning %rd20 was declared previous at ispass-2009-NN.1.sm_30.ptx:297 skipping new declaration
GPGPU-Sim PTX: Warning %rd21 was declared previous at ispass-2009-NN.1.sm_30.ptx:297 skipping new declaration
GPGPU-Sim PTX: Warning %rd22 was declared previous at ispass-2009-NN.1.sm_30.ptx:297 skipping new declaration
GPGPU-Sim PTX: Warning %rd23 was declared previous at ispass-2009-NN.1.sm_30.ptx:297 skipping new declaration
GPGPU-Sim PTX: Warning %rd24 was declared previous at ispass-2009-NN.1.sm_30.ptx:297 skipping new declaration
GPGPU-Sim PTX: Warning %rd25 was declared previous at ispass-2009-NN.1.sm_30.ptx:297 skipping new declaration
GPGPU-Sim PTX: Warning %rd26 was declared previous at ispass-2009-NN.1.sm_30.ptx:297 skipping new declaration
GPGPU-Sim PTX: Warning %rd27 was declared previous at ispass-2009-NN.1.sm_30.ptx:297 skipping new declaration
GPGPU-Sim PTX: Warning %rd28 was declared previous at ispass-2009-NN.1.sm_30.ptx:297 skipping new declaration
GPGPU-Sim PTX: instruction assembly for function '_Z18executeSecondLayerPfS_S_'...   done.
GPGPU-Sim PTX: Warning %p0 was declared previous at ispass-2009-NN.1.sm_30.ptx:437 skipping new declaration
GPGPU-Sim PTX: Warning %p1 was declared previous at ispass-2009-NN.1.sm_30.ptx:437 skipping new declaration
GPGPU-Sim PTX: Warning %p2 was declared previous at ispass-2009-NN.1.sm_30.ptx:437 skipping new declaration
GPGPU-Sim PTX: Warning %p3 was declared previous at ispass-2009-NN.1.sm_30.ptx:437 skipping new declaration
GPGPU-Sim PTX: Warning %p4 was declared previous at ispass-2009-NN.1.sm_30.ptx:437 skipping new declaration
GPGPU-Sim PTX: Warning %f0 was declared previous at ispass-2009-NN.1.sm_30.ptx:438 skipping new declaration
GPGPU-Sim PTX: Warning %f1 was declared previous at ispass-2009-NN.1.sm_30.ptx:438 skipping new declaration
GPGPU-Sim PTX: Warning %f2 was declared previous at ispass-2009-NN.1.sm_30.ptx:438 skipping new declaration
GPGPU-Sim PTX: Warning %f3 was declared previous at ispass-2009-NN.1.sm_30.ptx:438 skipping new declaration
GPGPU-Sim PTX: Warning %f4 was declared previous at ispass-2009-NN.1.sm_30.ptx:438 skipping new declaration
GPGPU-Sim PTX: Warning %f5 was declared previous at ispass-2009-NN.1.sm_30.ptx:438 skipping new declaration
GPGPU-Sim PTX: Warning %f6 was declared previous at ispass-2009-NN.1.sm_30.ptx:438 skipping new declaration
GPGPU-Sim PTX: Warning %f7 was declared previous at ispass-2009-NN.1.sm_30.ptx:438 skipping new declaration
GPGPU-Sim PTX: Warning %f8 was declared previous at ispass-2009-NN.1.sm_30.ptx:438 skipping new declaration
GPGPU-Sim PTX: Warning %f9 was declared previous at ispass-2009-NN.1.sm_30.ptx:438 skipping new declaration
GPGPU-Sim PTX: Warning %f10 was declared previous at ispass-2009-NN.1.sm_30.ptx:438 skipping new declaration
GPGPU-Sim PTX: Warning %f11 was declared previous at ispass-2009-NN.1.sm_30.ptx:438 skipping new declaration
GPGPU-Sim PTX: Warning %f12 was declared previous at ispass-2009-NN.1.sm_30.ptx:438 skipping new declaration
GPGPU-Sim PTX: Warning %f13 was declared previous at ispass-2009-NN.1.sm_30.ptx:438 skipping new declaration
GPGPU-Sim PTX: Warning %f14 was declared previous at ispass-2009-NN.1.sm_30.ptx:438 skipping new declaration
GPGPU-Sim PTX: Warning %f15 was declared previous at ispass-2009-NN.1.sm_30.ptx:438 skipping new declaration
GPGPU-Sim PTX: Warning %f16 was declared previous at ispass-2009-NN.1.sm_30.ptx:438 skipping new declaration
GPGPU-Sim PTX: Warning %f17 was declared previous at ispass-2009-NN.1.sm_30.ptx:438 skipping new declaration
GPGPU-Sim PTX: Warning %f18 was declared previous at ispass-2009-NN.1.sm_30.ptx:438 skipping new declaration
GPGPU-Sim PTX: Warning %f19 was declared previous at ispass-2009-NN.1.sm_30.ptx:438 skipping new declaration
GPGPU-Sim PTX: Warning %f20 was declared previous at ispass-2009-NN.1.sm_30.ptx:438 skipping new declaration
GPGPU-Sim PTX: Warning %f21 was declared previous at ispass-2009-NN.1.sm_30.ptx:438 skipping new declaration
GPGPU-Sim PTX: Warning %f22 was declared previous at ispass-2009-NN.1.sm_30.ptx:438 skipping new declaration
GPGPU-Sim PTX: Warning %f23 was declared previous at ispass-2009-NN.1.sm_30.ptx:438 skipping new declaration
GPGPU-Sim PTX: Warning %f24 was declared previous at ispass-2009-NN.1.sm_30.ptx:438 skipping new declaration
GPGPU-Sim PTX: Warning %f25 was declared previous at ispass-2009-NN.1.sm_30.ptx:438 skipping new declaration
GPGPU-Sim PTX: Warning %f26 was declared previous at ispass-2009-NN.1.sm_30.ptx:438 skipping new declaration
GPGPU-Sim PTX: Warning %f27 was declared previous at ispass-2009-NN.1.sm_30.ptx:438 skipping new declaration
GPGPU-Sim PTX: Warning %f28 was declared previous at ispass-2009-NN.1.sm_30.ptx:438 skipping new declaration
GPGPU-Sim PTX: Warning %f29 was declared previous at ispass-2009-NN.1.sm_30.ptx:438 skipping new declaration
GPGPU-Sim PTX: Warning %f30 was declared previous at ispass-2009-NN.1.sm_30.ptx:438 skipping new declaration
GPGPU-Sim PTX: Warning %f31 was declared previous at ispass-2009-NN.1.sm_30.ptx:438 skipping new declaration
GPGPU-Sim PTX: Warning %f32 was declared previous at ispass-2009-NN.1.sm_30.ptx:438 skipping new declaration
GPGPU-Sim PTX: Warning %f33 was declared previous at ispass-2009-NN.1.sm_30.ptx:438 skipping new declaration
GPGPU-Sim PTX: Warning %f34 was declared previous at ispass-2009-NN.1.sm_30.ptx:438 skipping new declaration
GPGPU-Sim PTX: Warning %f35 was declared previous at ispass-2009-NN.1.sm_30.ptx:438 skipping new declaration
GPGPU-Sim PTX: Warning %f36 was declared previous at ispass-2009-NN.1.sm_30.ptx:438 skipping new declaration
GPGPU-Sim PTX: Warning %f37 was declared previous at ispass-2009-NN.1.sm_30.ptx:438 skipping new declaration
GPGPU-Sim PTX: Warning %f38 was declared previous at ispass-2009-NN.1.sm_30.ptx:438 skipping new declaration
GPGPU-Sim PTX: Warning %f39 was declared previous at ispass-2009-NN.1.sm_30.ptx:438 skipping new declaration
GPGPU-Sim PTX: Warning %f40 was declared previous at ispass-2009-NN.1.sm_30.ptx:438 skipping new declaration
GPGPU-Sim PTX: Warning %f41 was declared previous at ispass-2009-NN.1.sm_30.ptx:438 skipping new declaration
GPGPU-Sim PTX: Warning %f42 was declared previous at ispass-2009-NN.1.sm_30.ptx:438 skipping new declaration
GPGPU-Sim PTX: Warning %f43 was declared previous at ispass-2009-NN.1.sm_30.ptx:438 skipping new declaration
GPGPU-Sim PTX: Warning %f44 was declared previous at ispass-2009-NN.1.sm_30.ptx:438 skipping new declaration
GPGPU-Sim PTX: Warning %f45 was declared previous at ispass-2009-NN.1.sm_30.ptx:438 skipping new declaration
GPGPU-Sim PTX: Warning %f46 was declared previous at ispass-2009-NN.1.sm_30.ptx:438 skipping new declaration
GPGPU-Sim PTX: Warning %f47 was declared previous at ispass-2009-NN.1.sm_30.ptx:438 skipping new declaration
GPGPU-Sim PTX: Warning %f48 was declared previous at ispass-2009-NN.1.sm_30.ptx:438 skipping new declaration
GPGPU-Sim PTX: Warning %f49 was declared previous at ispass-2009-NN.1.sm_30.ptx:438 skipping new declaration
GPGPU-Sim PTX: Warning %f50 was declared previous at ispass-2009-NN.1.sm_30.ptx:438 skipping new declaration
GPGPU-Sim PTX: Warning %f51 was declared previous at ispass-2009-NN.1.sm_30.ptx:438 skipping new declaration
GPGPU-Sim PTX: Warning %f52 was declared previous at ispass-2009-NN.1.sm_30.ptx:438 skipping new declaration
GPGPU-Sim PTX: Warning %f53 was declared previous at ispass-2009-NN.1.sm_30.ptx:438 skipping new declaration
GPGPU-Sim PTX: Warning %f54 was declared previous at ispass-2009-NN.1.sm_30.ptx:438 skipping new declaration
GPGPU-Sim PTX: Warning %f55 was declared previous at ispass-2009-NN.1.sm_30.ptx:438 skipping new declaration
GPGPU-Sim PTX: Warning %f56 was declared previous at ispass-2009-NN.1.sm_30.ptx:438 skipping new declaration
GPGPU-Sim PTX: Warning %f57 was declared previous at ispass-2009-NN.1.sm_30.ptx:438 skipping new declaration
GPGPU-Sim PTX: Warning %f58 was declared previous at ispass-2009-NN.1.sm_30.ptx:438 skipping new declaration
GPGPU-Sim PTX: Warning %f59 was declared previous at ispass-2009-NN.1.sm_30.ptx:438 skipping new declaration
GPGPU-Sim PTX: Warning %f60 was declared previous at ispass-2009-NN.1.sm_30.ptx:438 skipping new declaration
GPGPU-Sim PTX: Warning %f61 was declared previous at ispass-2009-NN.1.sm_30.ptx:438 skipping new declaration
GPGPU-Sim PTX: Warning %f62 was declared previous at ispass-2009-NN.1.sm_30.ptx:438 skipping new declaration
GPGPU-Sim PTX: Warning %f63 was declared previous at ispass-2009-NN.1.sm_30.ptx:438 skipping new declaration
GPGPU-Sim PTX: Warning %f64 was declared previous at ispass-2009-NN.1.sm_30.ptx:438 skipping new declaration
GPGPU-Sim PTX: Warning %f65 was declared previous at ispass-2009-NN.1.sm_30.ptx:438 skipping new declaration
GPGPU-Sim PTX: Warning %f66 was declared previous at ispass-2009-NN.1.sm_30.ptx:438 skipping new declaration
GPGPU-Sim PTX: Warning %f67 was declared previous at ispass-2009-NN.1.sm_30.ptx:438 skipping new declaration
GPGPU-Sim PTX: Warning %r0 was declared previous at ispass-2009-NN.1.sm_30.ptx:439 skipping new declaration
GPGPU-Sim PTX: Warning %r1 was declared previous at ispass-2009-NN.1.sm_30.ptx:439 skipping new declaration
GPGPU-Sim PTX: Warning %r2 was declared previous at ispass-2009-NN.1.sm_30.ptx:439 skipping new declaration
GPGPU-Sim PTX: Warning %r3 was declared previous at ispass-2009-NN.1.sm_30.ptx:439 skipping new declaration
GPGPU-Sim PTX: Warning %r4 was declared previous at ispass-2009-NN.1.sm_30.ptx:439 skipping new declaration
GPGPU-Sim PTX: Warning %r5 was declared previous at ispass-2009-NN.1.sm_30.ptx:439 skipping new declaration
GPGPU-Sim PTX: Warning %r6 was declared previous at ispass-2009-NN.1.sm_30.ptx:439 skipping new declaration
GPGPU-Sim PTX: Warning %r7 was declared previous at ispass-2009-NN.1.sm_30.ptx:439 skipping new declaration
GPGPU-Sim PTX: Warning %r8 was declared previous at ispass-2009-NN.1.sm_30.ptx:439 skipping new declaration
GPGPU-Sim PTX: Warning %r9 was declared previous at ispass-2009-NN.1.sm_30.ptx:439 skipping new declaration
GPGPU-Sim PTX: Warning %r10 was declared previous at ispass-2009-NN.1.sm_30.ptx:439 skipping new declaration
GPGPU-Sim PTX: Warning %r11 was declared previous at ispass-2009-NN.1.sm_30.ptx:439 skipping new declaration
GPGPU-Sim PTX: Warning %r12 was declared previous at ispass-2009-NN.1.sm_30.ptx:439 skipping new declaration
GPGPU-Sim PTX: Warning %r13 was declared previous at ispass-2009-NN.1.sm_30.ptx:439 skipping new declaration
GPGPU-Sim PTX: Warning %r14 was declared previous at ispass-2009-NN.1.sm_30.ptx:439 skipping new declaration
GPGPU-Sim PTX: Warning %r15 was declared previous at ispass-2009-NN.1.sm_30.ptx:439 skipping new declaration
GPGPU-Sim PTX: Warning %r16 was declared previous at ispass-2009-NN.1.sm_30.ptx:439 skipping new declaration
GPGPU-Sim PTX: Warning %r17 was declared previous at ispass-2009-NN.1.sm_30.ptx:439 skipping new declaration
GPGPU-Sim PTX: Warning %r18 was declared previous at ispass-2009-NN.1.sm_30.ptx:439 skipping new declaration
GPGPU-Sim PTX: Warning %r19 was declared previous at ispass-2009-NN.1.sm_30.ptx:439 skipping new declaration
GPGPU-Sim PTX: Warning %r20 was declared previous at ispass-2009-NN.1.sm_30.ptx:439 skipping new declaration
GPGPU-Sim PTX: Warning %r21 was declared previous at ispass-2009-NN.1.sm_30.ptx:439 skipping new declaration
GPGPU-Sim PTX: Warning %r22 was declared previous at ispass-2009-NN.1.sm_30.ptx:439 skipping new declaration
GPGPU-Sim PTX: Warning %r23 was declared previous at ispass-2009-NN.1.sm_30.ptx:439 skipping new declaration
GPGPU-Sim PTX: Warning %r24 was declared previous at ispass-2009-NN.1.sm_30.ptx:439 skipping new declaration
GPGPU-Sim PTX: Warning %r25 was declared previous at ispass-2009-NN.1.sm_30.ptx:439 skipping new declaration
GPGPU-Sim PTX: Warning %r26 was declared previous at ispass-2009-NN.1.sm_30.ptx:439 skipping new declaration
GPGPU-Sim PTX: Warning %fd0 was declared previous at ispass-2009-NN.1.sm_30.ptx:440 skipping new declaration
GPGPU-Sim PTX: Warning %fd1 was declared previous at ispass-2009-NN.1.sm_30.ptx:440 skipping new declaration
GPGPU-Sim PTX: Warning %fd2 was declared previous at ispass-2009-NN.1.sm_30.ptx:440 skipping new declaration
GPGPU-Sim PTX: Warning %fd3 was declared previous at ispass-2009-NN.1.sm_30.ptx:440 skipping new declaration
GPGPU-Sim PTX: Warning %fd4 was declared previous at ispass-2009-NN.1.sm_30.ptx:440 skipping new declaration
GPGPU-Sim PTX: Warning %rd0 was declared previous at ispass-2009-NN.1.sm_30.ptx:441 skipping new declaration
GPGPU-Sim PTX: Warning %rd1 was declared previous at ispass-2009-NN.1.sm_30.ptx:441 skipping new declaration
GPGPU-Sim PTX: Warning %rd2 was declared previous at ispass-2009-NN.1.sm_30.ptx:441 skipping new declaration
GPGPU-Sim PTX: Warning %rd3 was declared previous at ispass-2009-NN.1.sm_30.ptx:441 skipping new declaration
GPGPU-Sim PTX: Warning %rd4 was declared previous at ispass-2009-NN.1.sm_30.ptx:441 skipping new declaration
GPGPU-Sim PTX: Warning %rd5 was declared previous at ispass-2009-NN.1.sm_30.ptx:441 skipping new declaration
GPGPU-Sim PTX: Warning %rd6 was declared previous at ispass-2009-NN.1.sm_30.ptx:441 skipping new declaration
GPGPU-Sim PTX: Warning %rd7 was declared previous at ispass-2009-NN.1.sm_30.ptx:441 skipping new declaration
GPGPU-Sim PTX: Warning %rd8 was declared previous at ispass-2009-NN.1.sm_30.ptx:441 skipping new declaration
GPGPU-Sim PTX: Warning %rd9 was declared previous at ispass-2009-NN.1.sm_30.ptx:441 skipping new declaration
GPGPU-Sim PTX: Warning %rd10 was declared previous at ispass-2009-NN.1.sm_30.ptx:441 skipping new declaration
[...]
dram[1]:        513       511       478       509       575       516       392       401       460       455       268       288       268       268       271       269
dram[2]:        505       690       496       681       521       642       415       566       451       489       278       269       268       269       268       268
dram[3]:        515       707       503       728       466       576       354       675       393       406       308       268       268       268       268       268
dram[4]:        524       463       506       490       526       512       379       475       461       467       268       269       268       269       270       268
dram[5]:        514       463       488       490       450       540       380       403       404       466       273       268       267       269       270       268
Memory Partition 0: 
Cache L2_bank_000:
MSHR contents

Cache L2_bank_001:
MSHR contents

In Dram Latency Queue (total = 0): 
DRAM[0]: 16 bks, busW=4 BL=8 CL=12, tRRD=6 tCCD=2, tRCD=12 tRAS=28 tRP=12 tRC=40
n_cmd=7667341 n_nop=7665517 n_act=161 n_pre=145 n_ref_event=17712592 n_req=1494 n_rd=1470 n_rd_L2_A=0 n_write=0 n_wr_bk=48 bw_util=0.000396
n_activity=22645 dram_eff=0.1341
bk0: 154a 7666890i bk1: 168a 7666358i bk2: 120a 7667006i bk3: 125a 7666787i bk4: 125a 7666957i bk5: 125a 7666895i bk6: 76a 7667261i bk7: 68a 7667276i bk8: 67a 7667241i bk9: 85a 7667157i bk10: 73a 7667120i bk11: 71a 7667272i bk12: 47a 7667309i bk13: 53a 7667320i bk14: 59a 7667309i bk15: 54a 7667320i 

------------------------------------------------------------------------

Row_Buffer_Locality = 0.900268
Row_Buffer_Locality_read = 0.908163
Row_Buffer_Locality_write = 0.416667
Bank_Level_Parallism = 1.041765
Bank_Level_Parallism_Col = 0.000000
Bank_Level_Parallism_Ready = 1.000000
write_to_read_ratio_blp_rw_average = 0.000000
GrpLevelPara = 0.000000 

BW Util details:
bwutil = 0.000396 
total_CMD = 7667341 
util_bw = 3036 
Wasted_Col = 1866 
Wasted_Row = 1628 
Idle = 7660811 

BW Util Bottlenecks: 
RCDc_limit = 1732 
RCDWRc_limit = 91 
WTRc_limit = 0 
RTWc_limit = 30 
CCDLc_limit = 61 
rwq = 0 
CCDLc_limit_alone = 57 
WTRc_limit_alone = 0 
RTWc_limit_alone = 26 

Commands details: 
total_CMD = 7667341 
n_nop = 7665517 
Read = 1470 
Write = 0 
L2_Alloc = 0 
L2_WB = 48 
n_act = 161 
n_pre = 145 
n_ref = 17712592 
n_req = 1494 
total_req = 1518 

Dual Bus Interface Util: 
issued_total_row = 306 
issued_total_col = 1518 
Row_Bus_Util =  0.000040 
CoL_Bus_Util = 0.000198 
Either_Row_CoL_Bus_Util = 0.000238 
Issued_on_Two_Bus_Simul_Util = 0.000000 
issued_two_Eff = 0.000000 
queue_avg = 0.000046 


dram_util_bins: 0 0 0 0 0 0 0 0 0 0
dram_eff_bins: 0 0 0 0 0 0 0 0 0 0
mrqq: max=3 avg=4.60394e-05
Memory Partition 1: 
Cache L2_bank_002:
MSHR contents

Cache L2_bank_003:
MSHR contents

In Dram Latency Queue (total = 0): 
DRAM[1]: 16 bks, busW=4 BL=8 CL=12, tRRD=6 tCCD=2, tRCD=12 tRAS=28 tRP=12 tRC=40
n_cmd=7667341 n_nop=7665527 n_act=149 n_pre=133 n_ref_event=0 n_req=1508 n_rd=1484 n_rd_L2_A=0 n_write=0 n_wr_bk=48 bw_util=0.0003996
n_activity=22186 dram_eff=0.1381
bk0: 160a 7666945i bk1: 164a 7666502i bk2: 117a 7667022i bk3: 130a 7666925i bk4: 122a 7667003i bk5: 126a 7666942i bk6: 81a 7667260i bk7: 72a 7667279i bk8: 68a 7667193i bk9: 75a 7667251i bk10: 72a 7667182i bk11: 74a 7667282i bk12: 51a 7667317i bk13: 62a 7667319i bk14: 59a 7667010i bk15: 51a 7667300i 

------------------------------------------------------------------------

Row_Buffer_Locality = 0.909814
Row_Buffer_Locality_read = 0.916442
Row_Buffer_Locality_write = 0.500000
Bank_Level_Parallism = 1.040745
Bank_Level_Parallism_Col = 1.019845
Bank_Level_Parallism_Ready = 1.000653
write_to_read_ratio_blp_rw_average = 0.064186
GrpLevelPara = 1.010853 

BW Util details:
bwutil = 0.000400 
total_CMD = 7667341 
util_bw = 3064 
Wasted_Col = 1757 
Wasted_Row = 1505 
Idle = 7661015 

BW Util Bottlenecks: 
RCDc_limit = 1620 
RCDWRc_limit = 82 
WTRc_limit = 0 
RTWc_limit = 36 
CCDLc_limit = 73 
rwq = 0 
CCDLc_limit_alone = 64 
WTRc_limit_alone = 0 
RTWc_limit_alone = 27 

Commands details: 
total_CMD = 7667341 
n_nop = 7665527 
Read = 1484 
Write = 0 
L2_Alloc = 0 
L2_WB = 48 
n_act = 149 
n_pre = 133 
n_ref = 0 
n_req = 1508 
total_req = 1532 

Dual Bus Interface Util: 
issued_total_row = 282 
issued_total_col = 1532 
Row_Bus_Util =  0.000037 
CoL_Bus_Util = 0.000200 
Either_Row_CoL_Bus_Util = 0.000237 
Issued_on_Two_Bus_Simul_Util = 0.000000 
issued_two_Eff = 0.000000 
queue_avg = 0.000066 


dram_util_bins: 0 0 0 0 0 0 0 0 0 0
dram_eff_bins: 0 0 0 0 0 0 0 0 0 0
mrqq: max=3 avg=6.6255e-05
Memory Partition 2: 
Cache L2_bank_004:
MSHR contents

Cache L2_bank_005:
MSHR contents

In Dram Latency Queue (total = 0): 
DRAM[2]: 16 bks, busW=4 BL=8 CL=12, tRRD=6 tCCD=2, tRCD=12 tRAS=28 tRP=12 tRC=40
n_cmd=7667341 n_nop=7665543 n_act=152 n_pre=136 n_ref_event=0 n_req=1488 n_rd=1466 n_rd_L2_A=0 n_write=0 n_wr_bk=44 bw_util=0.0003939
n_activity=22192 dram_eff=0.1361
bk0: 156a 7666590i bk1: 160a 7666636i bk2: 118a 7666878i bk3: 130a 7666818i bk4: 114a 7667069i bk5: 127a 7666957i bk6: 77a 7667254i bk7: 69a 7667276i bk8: 73a 7667190i bk9: 71a 7667250i bk10: 75a 7667190i bk11: 74a 7667293i bk12: 49a 7667325i bk13: 61a 7667337i bk14: 55a 7667324i bk15: 57a 7667325i 

------------------------------------------------------------------------

Row_Buffer_Locality = 0.905914
Row_Buffer_Locality_read = 0.911323
Row_Buffer_Locality_write = 0.545455
Bank_Level_Parallism = 1.044193
Bank_Level_Parallism_Col = 1.020748
Bank_Level_Parallism_Ready = 1.000662
write_to_read_ratio_blp_rw_average = 0.051085
GrpLevelPara = 1.014146 

BW Util details:
bwutil = 0.000394 
total_CMD = 7667341 
util_bw = 3020 
Wasted_Col = 1754 
Wasted_Row = 1534 
Idle = 7661033 

BW Util Bottlenecks: 
RCDc_limit = 1678 
RCDWRc_limit = 69 
WTRc_limit = 7 
RTWc_limit = 13 
CCDLc_limit = 49 
rwq = 0 
CCDLc_limit_alone = 45 
WTRc_limit_alone = 7 
RTWc_limit_alone = 9 

Commands details: 
total_CMD = 7667341 
n_nop = 7665543 
Read = 1466 
Write = 0 
L2_Alloc = 0 
L2_WB = 44 
n_act = 152 
n_pre = 136 
n_ref = 0 
n_req = 1488 
total_req = 1510 

Dual Bus Interface Util: 
issued_total_row = 288 
issued_total_col = 1510 
Row_Bus_Util =  0.000038 
CoL_Bus_Util = 0.000197 
Either_Row_CoL_Bus_Util = 0.000235 
Issued_on_Two_Bus_Simul_Util = 0.000000 
issued_two_Eff = 0.000000 
queue_avg = 0.000042 


dram_util_bins: 0 0 0 0 0 0 0 0 0 0
dram_eff_bins: 0 0 0 0 0 0 0 0 0 0
mrqq: max=3 avg=4.1605e-05
Memory Partition 3: 
Cache L2_bank_006:
MSHR contents

Cache L2_bank_007:
MSHR contents

In Dram Latency Queue (total = 0): 
DRAM[3]: 16 bks, busW=4 BL=8 CL=12, tRRD=6 tCCD=2, tRCD=12 tRAS=28 tRP=12 tRC=40
n_cmd=7667341 n_nop=7665574 n_act=143 n_pre=127 n_ref_event=0 n_req=1475 n_rd=1453 n_rd_L2_A=0 n_write=0 n_wr_bk=44 bw_util=0.0003905
n_activity=21753 dram_eff=0.1376
bk0: 160a 7666350i bk1: 156a 7666941i bk2: 118a 7666870i bk3: 126a 7667009i bk4: 115a 7667026i bk5: 121a 7666962i bk6: 76a 7667264i bk7: 68a 7667284i bk8: 83a 7667151i bk9: 71a 7667241i bk10: 76a 7667229i bk11: 68a 7667287i bk12: 44a 7667320i bk13: 56a 7667331i bk14: 59a 7667316i bk15: 56a 7667335i 

------------------------------------------------------------------------

Row_Buffer_Locality = 0.911186
Row_Buffer_Locality_read = 0.917412
Row_Buffer_Locality_write = 0.500000
Bank_Level_Parallism = 1.039471
Bank_Level_Parallism_Col = 0.000000
Bank_Level_Parallism_Ready = 1.000000
write_to_read_ratio_blp_rw_average = 0.000000
GrpLevelPara = 0.000000 

BW Util details:
bwutil = 0.000390 
total_CMD = 7667341 
util_bw = 2994 
Wasted_Col = 1672 
Wasted_Row = 1438 
Idle = 7661237 

BW Util Bottlenecks: 
RCDc_limit = 1557 
RCDWRc_limit = 70 
WTRc_limit = 0 
RTWc_limit = 46 
CCDLc_limit = 56 
rwq = 0 
CCDLc_limit_alone = 48 
WTRc_limit_alone = 0 
RTWc_limit_alone = 38 

Commands details: 
total_CMD = 7667341 
n_nop = 7665574 
Read = 1453 
Write = 0 
L2_Alloc = 0 
L2_WB = 44 
n_act = 143 
n_pre = 127 
n_ref = 0 
n_req = 1475 
total_req = 1497 

Dual Bus Interface Util: 
issued_total_row = 270 
issued_total_col = 1497 
Row_Bus_Util =  0.000035 
CoL_Bus_Util = 0.000195 
Either_Row_CoL_Bus_Util = 0.000230 
Issued_on_Two_Bus_Simul_Util = 0.000000 
issued_two_Eff = 0.000000 
queue_avg = 0.000044 


dram_util_bins: 0 0 0 0 0 0 0 0 0 0
dram_eff_bins: 0 0 0 0 0 0 0 0 0 0
mrqq: max=4 avg=4.44743e-05
Memory Partition 4: 
Cache L2_bank_008:
MSHR contents

Cache L2_bank_009:
MSHR contents

In Dram Latency Queue (total = 0): 
DRAM[4]: 16 bks, busW=4 BL=8 CL=12, tRRD=6 tCCD=2, tRCD=12 tRAS=28 tRP=12 tRC=40
n_cmd=7667341 n_nop=7665605 n_act=133 n_pre=117 n_ref_event=0 n_req=1464 n_rd=1442 n_rd_L2_A=0 n_write=0 n_wr_bk=44 bw_util=0.0003876
n_activity=21214 dram_eff=0.1401
bk0: 160a 7666413i bk1: 152a 7666888i bk2: 119a 7667078i bk3: 122a 7666873i bk4: 114a 7666958i bk5: 114a 7667002i bk6: 79a 7667258i bk7: 78a 7667282i bk8: 70a 7667248i bk9: 71a 7667254i bk10: 73a 7667282i bk11: 65a 7667287i bk12: 51a 7667321i bk13: 51a 7667326i bk14: 58a 7667318i bk15: 65a 7667327i 

------------------------------------------------------------------------

Row_Buffer_Locality = 0.917350
Row_Buffer_Locality_read = 0.923717
Row_Buffer_Locality_write = 0.500000
Bank_Level_Parallism = 1.034773
Bank_Level_Parallism_Col = 1.016432
Bank_Level_Parallism_Ready = 1.000673
write_to_read_ratio_blp_rw_average = 0.054494
GrpLevelPara = 1.013078 

BW Util details:
bwutil = 0.000388 
total_CMD = 7667341 
util_bw = 2972 
Wasted_Col = 1552 
Wasted_Row = 1391 
Idle = 7661426 

BW Util Bottlenecks: 
RCDc_limit = 1434 
RCDWRc_limit = 73 
WTRc_limit = 13 
RTWc_limit = 13 
CCDLc_limit = 63 
rwq = 0 
CCDLc_limit_alone = 59 
WTRc_limit_alone = 13 
RTWc_limit_alone = 9 

Commands details: 
total_CMD = 7667341 
n_nop = 7665605 
Read = 1442 
Write = 0 
L2_Alloc = 0 
L2_WB = 44 
n_act = 133 
n_pre = 117 
n_ref = 0 
n_req = 1464 
total_req = 1486 

Dual Bus Interface Util: 
issued_total_row = 250 
issued_total_col = 1486 
Row_Bus_Util =  0.000033 
CoL_Bus_Util = 0.000194 
Either_Row_CoL_Bus_Util = 0.000226 
Issued_on_Two_Bus_Simul_Util = 0.000000 
issued_two_Eff = 0.000000 
queue_avg = 0.000047 


dram_util_bins: 0 0 0 0 0 0 0 0 0 0
dram_eff_bins: 0 0 0 0 0 0 0 0 0 0
mrqq: max=3 avg=4.6822e-05
Memory Partition 5: 
Cache L2_bank_010:
MSHR contents

Cache L2_bank_011:
MSHR contents

In Dram Latency Queue (total = 0): 
DRAM[5]: 16 bks, busW=4 BL=8 CL=12, tRRD=6 tCCD=2, tRCD=12 tRAS=28 tRP=12 tRC=40
n_cmd=7667341 n_nop=7665550 n_act=155 n_pre=139 n_ref_event=4562280503665652019 n_req=1473 n_rd=1449 n_rd_L2_A=0 n_write=0 n_wr_bk=48 bw_util=0.0003905
n_activity=22261 dram_eff=0.1345
bk0: 156a 7666554i bk1: 156a 7666728i bk2: 130a 7666787i bk3: 122a 7666853i bk4: 121a 7666914i bk5: 120a 7667039i bk6: 67a 7667262i bk7: 75a 7667277i bk8: 72a 7667141i bk9: 71a 7667238i bk10: 75a 7667271i bk11: 63a 7667258i bk12: 52a 7667317i bk13: 52a 7667329i bk14: 60a 7667319i bk15: 57a 7667340i 

------------------------------------------------------------------------

Row_Buffer_Locality = 0.902240
Row_Buffer_Locality_read = 0.908903
Row_Buffer_Locality_write = 0.500000
Bank_Level_Parallism = 1.032096
Bank_Level_Parallism_Col = 15.571266
Bank_Level_Parallism_Ready = 1.000000
write_to_read_ratio_blp_rw_average = 0.052139
GrpLevelPara = 0.922641 

BW Util details:
bwutil = 0.000390 
total_CMD = 7667341 
util_bw = 2994 
Wasted_Col = 1806 
Wasted_Row = 1598 
Idle = 7660943 

BW Util Bottlenecks: 
RCDc_limit = 1685 
RCDWRc_limit = 84 
WTRc_limit = 4 
RTWc_limit = 13 
CCDLc_limit = 62 
rwq = 0 
CCDLc_limit_alone = 58 
WTRc_limit_alone = 4 
RTWc_limit_alone = 9 

Commands details: 
total_CMD = 7667341 
n_nop = 7665550 
Read = 1449 
Write = 0 
L2_Alloc = 0 
L2_WB = 48 
n_act = 155 
n_pre = 139 
n_ref = 4562280503665652019 
n_req = 1473 
total_req = 1497 

Dual Bus Interface Util: 
issued_total_row = 294 
issued_total_col = 1497 
Row_Bus_Util =  0.000038 
CoL_Bus_Util = 0.000195 
Either_Row_CoL_Bus_Util = 0.000234 
Issued_on_Two_Bus_Simul_Util = 0.000000 
issued_two_Eff = 0.000000 
queue_avg = 0.000044 


dram_util_bins: 0 0 0 0 0 0 0 0 0 0
dram_eff_bins: 0 0 0 0 0 0 0 0 0 0
mrqq: max=3 avg=4.35614e-05

========= L2 cache stats =========
L2_cache_bank[0]: Access = 799685, Miss = 1808, Miss_rate = 0.002, Pending_hits = 909, Reservation_fails = 15485
L2_cache_bank[1]: Access = 804608, Miss = 1785, Miss_rate = 0.002, Pending_hits = 919, Reservation_fails = 16391
L2_cache_bank[2]: Access = 803894, Miss = 1828, Miss_rate = 0.002, Pending_hits = 939, Reservation_fails = 16347
L2_cache_bank[3]: Access = 801201, Miss = 1915, Miss_rate = 0.002, Pending_hits = 910, Reservation_fails = 14819
L2_cache_bank[4]: Access = 803169, Miss = 1800, Miss_rate = 0.002, Pending_hits = 890, Reservation_fails = 15466
L2_cache_bank[5]: Access = 809789, Miss = 1902, Miss_rate = 0.002, Pending_hits = 893, Reservation_fails = 15196
L2_cache_bank[6]: Access = 806445, Miss = 1762, Miss_rate = 0.002, Pending_hits = 878, Reservation_fails = 14871
L2_cache_bank[7]: Access = 808008, Miss = 1872, Miss_rate = 0.002, Pending_hits = 875, Reservation_fails = 15187
L2_cache_bank[8]: Access = 804256, Miss = 1752, Miss_rate = 0.002, Pending_hits = 860, Reservation_fails = 14930
L2_cache_bank[9]: Access = 801359, Miss = 1861, Miss_rate = 0.002, Pending_hits = 886, Reservation_fails = 14872
L2_cache_bank[10]: Access = 804693, Miss = 1766, Miss_rate = 0.002, Pending_hits = 891, Reservation_fails = 15958
L2_cache_bank[11]: Access = 799362, Miss = 1824, Miss_rate = 0.002, Pending_hits = 872, Reservation_fails = 14383
L2_total_cache_accesses = 9646469
L2_total_cache_misses = 21875
L2_total_cache_miss_rate = 0.0023
L2_total_cache_pending_hits = 10722
L2_total_cache_reservation_fails = 183905
L2_total_cache_breakdown:
	L2_cache_stats_breakdown[GLOBAL_ACC_R][HIT] = 9611916
	L2_cache_stats_breakdown[GLOBAL_ACC_R][HIT_RESERVED] = 10298
	L2_cache_stats_breakdown[GLOBAL_ACC_R][MISS] = 1535
	L2_cache_stats_breakdown[GLOBAL_ACC_R][RESERVATION_FAIL] = 181445
	L2_cache_stats_breakdown[GLOBAL_ACC_R][SECTOR_MISS] = 7059
	L2_cache_stats_breakdown[LOCAL_ACC_R][HIT] = 0
	L2_cache_stats_breakdown[LOCAL_ACC_R][HIT_RESERVED] = 0
	L2_cache_stats_breakdown[LOCAL_ACC_R][MISS] = 0
	L2_cache_stats_breakdown[LOCAL_ACC_R][RESERVATION_FAIL] = 0
	L2_cache_stats_breakdown[LOCAL_ACC_R][SECTOR_MISS] = 0
	L2_cache_stats_breakdown[CONST_ACC_R][HIT] = 114
	L2_cache_stats_breakdown[CONST_ACC_R][HIT_RESERVED] = 26
	L2_cache_stats_breakdown[CONST_ACC_R][MISS] = 3
	L2_cache_stats_breakdown[CONST_ACC_R][RESERVATION_FAIL] = 279
	L2_cache_stats_breakdown[CONST_ACC_R][SECTOR_MISS] = 7
	L2_cache_stats_breakdown[TEXTURE_ACC_R][HIT] = 0
	L2_cache_stats_breakdown[TEXTURE_ACC_R][HIT_RESERVED] = 0
	L2_cache_stats_breakdown[TEXTURE_ACC_R][MISS] = 0
	L2_cache_stats_breakdown[TEXTURE_ACC_R][RESERVATION_FAIL] = 0
	L2_cache_stats_breakdown[TEXTURE_ACC_R][SECTOR_MISS] = 0
	L2_cache_stats_breakdown[GLOBAL_ACC_W][HIT] = 0
	L2_cache_stats_breakdown[GLOBAL_ACC_W][HIT_RESERVED] = 0
	L2_cache_stats_breakdown[GLOBAL_ACC_W][MISS] = 2079
	L2_cache_stats_breakdown[GLOBAL_ACC_W][RESERVATION_FAIL] = 0
	L2_cache_stats_breakdown[GLOBAL_ACC_W][SECTOR_MISS] = 11032
	L2_cache_stats_breakdown[LOCAL_ACC_W][HIT] = 0
	L2_cache_stats_breakdown[LOCAL_ACC_W][HIT_RESERVED] = 0
	L2_cache_stats_breakdown[LOCAL_ACC_W][MISS] = 0
	L2_cache_stats_breakdown[LOCAL_ACC_W][RESERVATION_FAIL] = 0
	L2_cache_stats_breakdown[LOCAL_ACC_W][SECTOR_MISS] = 0
	L2_cache_stats_breakdown[L1_WRBK_ACC][HIT] = 0
	L2_cache_stats_breakdown[L1_WRBK_ACC][HIT_RESERVED] = 0
	L2_cache_stats_breakdown[L1_WRBK_ACC][MISS] = 0
	L2_cache_stats_breakdown[L1_WRBK_ACC][RESERVATION_FAIL] = 0
	L2_cache_stats_breakdown[L1_WRBK_ACC][SECTOR_MISS] = 0
	L2_cache_stats_breakdown[L2_WRBK_ACC][HIT] = 0
	L2_cache_stats_breakdown[L2_WRBK_ACC][HIT_RESERVED] = 0
	L2_cache_stats_breakdown[L2_WRBK_ACC][MISS] = 0
	L2_cache_stats_breakdown[L2_WRBK_ACC][RESERVATION_FAIL] = 0
	L2_cache_stats_breakdown[L2_WRBK_ACC][SECTOR_MISS] = 0
	L2_cache_stats_breakdown[INST_ACC_R][HIT] = 1842
	L2_cache_stats_breakdown[INST_ACC_R][HIT_RESERVED] = 398
	L2_cache_stats_breakdown[INST_ACC_R][MISS] = 40
	L2_cache_stats_breakdown[INST_ACC_R][RESERVATION_FAIL] = 2181
	L2_cache_stats_breakdown[INST_ACC_R][SECTOR_MISS] = 120
	L2_cache_stats_breakdown[L1_WR_ALLOC_R][HIT] = 0
	L2_cache_stats_breakdown[L1_WR_ALLOC_R][HIT_RESERVED] = 0
	L2_cache_stats_breakdown[L1_WR_ALLOC_R][MISS] = 0
	L2_cache_stats_breakdown[L1_WR_ALLOC_R][RESERVATION_FAIL] = 0
	L2_cache_stats_breakdown[L1_WR_ALLOC_R][SECTOR_MISS] = 0
	L2_cache_stats_breakdown[L2_WR_ALLOC_R][HIT] = 0
	L2_cache_stats_breakdown[L2_WR_ALLOC_R][HIT_RESERVED] = 0
	L2_cache_stats_breakdown[L2_WR_ALLOC_R][MISS] = 0
	L2_cache_stats_breakdown[L2_WR_ALLOC_R][RESERVATION_FAIL] = 0
	L2_cache_stats_breakdown[L2_WR_ALLOC_R][SECTOR_MISS] = 0
	L2_cache_stats_breakdown[GLOBAL_ACC_R][TOTAL_ACCESS] = 9630808
	L2_cache_stats_breakdown[CONST_ACC_R][TOTAL_ACCESS] = 150
	L2_cache_stats_breakdown[GLOBAL_ACC_W][TOTAL_ACCESS] = 13111
	L2_cache_stats_breakdown[INST_ACC_R][TOTAL_ACCESS] = 2400
L2_total_cache_reservation_fail_breakdown:
	L2_cache_stats_fail_breakdown[GLOBAL_ACC_R][MSHR_MERGE_ENRTY_FAIL] = 181445
	L2_cache_stats_fail_breakdown[CONST_ACC_R][MSHR_MERGE_ENRTY_FAIL] = 279
	L2_cache_stats_fail_breakdown[INST_ACC_R][MSHR_MERGE_ENRTY_FAIL] = 2181
L2_cache_data_port_util = 0.138
L2_cache_fill_port_util = 0.000

icnt_total_pkts_mem_to_simt=9646469
icnt_total_pkts_simt_to_mem=9644594
LD_mem_lat_dist  0 0 0 0 0 0 0 0 0 0 0 0 0 0 0 0 0 0 0 0 0 0 0 0 0 0 0
ST_mem_lat_dist  0 0 0 0 0 0 0 0 0 0 0 0 0 0 0 0 0 0 0 0 0 0 0 0 0 0 0
----------------------------Interconnect-DETAILS--------------------------------
Class 0:
Packet latency average = 5.22606
	minimum = 5
	maximum = 27
Network latency average = 5.22603
	minimum = 5
	maximum = 27
Slowest packet = 19226260
Flit latency average = 5.22603
	minimum = 5
	maximum = 27
Slowest flit = 19226260
Fragmentation average = 0
	minimum = 0
	maximum = 0
Injected packet rate average = 0.0695783
	minimum = 0.0535236 (at node 2)
	maximum = 0.0909241 (at node 21)
Accepted packet rate average = 0.0695783
	minimum = 0.0539201 (at node 2)
	maximum = 0.0909241 (at node 21)
Injected flit rate average = 0.0695783
	minimum = 0.0535236 (at node 2)
	maximum = 0.0909241 (at node 21)
Accepted flit rate average= 0.0695783
	minimum = 0.0539201 (at node 2)
	maximum = 0.0909241 (at node 21)
Injected packet length average = 1
Accepted packet length average = 1
Total in-flight flits = 0 (0 measured)
====== Overall Traffic Statistics ======
====== Traffic class 0 ======
Packet latency average = 26.712 (4 samples)
	minimum = 5 (4 samples)
	maximum = 233.75 (4 samples)
Network latency average = 24.8194 (4 samples)
	minimum = 5 (4 samples)
	maximum = 226.75 (4 samples)
Flit latency average = 24.8194 (4 samples)
	minimum = 5 (4 samples)
	maximum = 226.75 (4 samples)
Fragmentation average = 0 (4 samples)
	minimum = 0 (4 samples)
	maximum = 0 (4 samples)
Injected packet rate average = 0.256385 (4 samples)
	minimum = 0.213159 (4 samples)
	maximum = 0.341934 (4 samples)
Accepted packet rate average = 0.256385 (4 samples)
	minimum = 0.21356 (4 samples)
	maximum = 0.341428 (4 samples)
Injected flit rate average = 0.256385 (4 samples)
	minimum = 0.213159 (4 samples)
	maximum = 0.341934 (4 samples)
Accepted flit rate average = 0.256385 (4 samples)
	minimum = 0.21356 (4 samples)
	maximum = 0.341428 (4 samples)
Injected packet size average = 1 (4 samples)
Accepted packet size average = 1 (4 samples)
Hops average = 1 (4 samples)
----------------------------END-of-Interconnect-DETAILS-------------------------


gpgpu_simulation_time = 0 days, 0 hrs, 28 min, 39 sec (1719 sec)
gpgpu_simulation_rate = 40649 (inst/sec)
gpgpu_simulation_rate = 3379 (cycle/sec)
gpgpu_silicon_slowdown = 207161x
7 2 1 0 4 1 4 9 6 9 0 6 9 0 1 5 9 7 3 4 9 6 6 5 4 0 7 4
GPGPU-Sim: *** exit detected ***
