

        *** GPGPU-Sim Simulator Version 4.0.0  [build gpgpu-sim_git-commit-90ec3399763d7c8512cfe7dc193473086c38ca38_modified_0.0] ***


GPGPU-Sim PTX: simulation mode 0 (can change with PTX_SIM_MODE_FUNC environment variable:
               1=functional simulation only, 0=detailed performance simulator)
GPGPU-Sim PTX: overriding embedded ptx with ptx file (PTX_SIM_USE_PTX_FILE is set)
GPGPU-Sim: Configuration options:

-save_embedded_ptx                      0 # saves ptx files embedded in binary as <n>.ptx
-keep                                   0 # keep intermediate files created by GPGPU-Sim when interfacing with external programs
-gpgpu_ptx_save_converted_ptxplus                    0 # Saved converted ptxplus to a file
-gpgpu_occupancy_sm_number                   20 # The SM number to pass to ptxas when getting register usage for computing GPU occupancy. This parameter is required in the config.
-ptx_opcode_latency_int      4,13,4,5,145,32 # Opcode latencies for integers <ADD,MAX,MUL,MAD,DIV,SHFL>Default 1,1,19,25,145,32
-ptx_opcode_latency_fp          4,13,4,5,39 # Opcode latencies for single precision floating points <ADD,MAX,MUL,MAD,DIV>Default 1,1,1,1,30
-ptx_opcode_latency_dp         8,19,8,8,330 # Opcode latencies for double precision floating points <ADD,MAX,MUL,MAD,DIV>Default 8,8,8,8,335
-ptx_opcode_latency_sfu                    8 # Opcode latencies for SFU instructionsDefault 8
-ptx_opcode_latency_tesnor                   64 # Opcode latencies for Tensor instructionsDefault 64
-ptx_opcode_initiation_int          1,2,2,1,8,4 # Opcode initiation intervals for integers <ADD,MAX,MUL,MAD,DIV,SHFL>Default 1,1,4,4,32,4
-ptx_opcode_initiation_fp            1,2,1,1,4 # Opcode initiation intervals for single precision floating points <ADD,MAX,MUL,MAD,DIV>Default 1,1,1,1,5
-ptx_opcode_initiation_dp         8,16,8,8,130 # Opcode initiation intervals for double precision floating points <ADD,MAX,MUL,MAD,DIV>Default 8,8,8,8,130
-ptx_opcode_initiation_sfu                    8 # Opcode initiation intervals for sfu instructionsDefault 8
-ptx_opcode_initiation_tensor                   64 # Opcode initiation intervals for tensor instructionsDefault 64
-cdp_latency         7200,8000,100,12000,1600 # CDP API latency <cudaStreamCreateWithFlags, cudaGetParameterBufferV2_init_perWarp, cudaGetParameterBufferV2_perKernel, cudaLaunchDeviceV2_init_perWarp, cudaLaunchDevicV2_perKernel>Default 7200,8000,100,12000,1600
-network_mode                           1 # Interconnection network mode
-inter_config_file   config_fermi_islip.icnt # Interconnection network config file
-icnt_in_buffer_limit                   64 # in_buffer_limit
-icnt_out_buffer_limit                   64 # out_buffer_limit
-icnt_subnets                           2 # subnets
-icnt_arbiter_algo                      1 # arbiter_algo
-icnt_verbose                           0 # inct_verbose
-icnt_grant_cycles                      1 # grant_cycles
-gpgpu_ptx_use_cuobjdump                    1 # Use cuobjdump to extract ptx and sass from binaries
-gpgpu_experimental_lib_support                    0 # Try to extract code from cuda libraries [Broken because of unknown cudaGetExportTable]
-checkpoint_option                      0 #  checkpointing flag (0 = no checkpoint)
-checkpoint_kernel                      1 #  checkpointing during execution of which kernel (1- 1st kernel)
-checkpoint_CTA                         0 #  checkpointing after # of CTA (< less than total CTA)
-resume_option                          0 #  resume flag (0 = no resume)
-resume_kernel                          0 #  Resume from which kernel (1= 1st kernel)
-resume_CTA                             0 #  resume from which CTA 
-checkpoint_CTA_t                       0 #  resume from which CTA 
-checkpoint_insn_Y                      0 #  resume from which CTA 
-gpgpu_ptx_convert_to_ptxplus                    0 # Convert SASS (native ISA) to ptxplus and run ptxplus
-gpgpu_ptx_force_max_capability                   20 # Force maximum compute capability
-gpgpu_ptx_inst_debug_to_file                    0 # Dump executed instructions' debug information to file
-gpgpu_ptx_inst_debug_file       inst_debug.txt # Executed instructions' debug output file
-gpgpu_ptx_inst_debug_thread_uid                    1 # Thread UID for executed instructions' debug output
-gpgpu_simd_model                       1 # 1 = post-dominator
-gpgpu_shader_core_pipeline              1536:32 # shader core pipeline config, i.e., {<nthread>:<warpsize>}
-gpgpu_tex_cache:l1  N:4:128:24,L:R:m:N:L,T:128:4,128:2 # per-shader L1 texture cache  (READ-ONLY) config  {<nsets>:<bsize>:<assoc>,<rep>:<wr>:<alloc>:<wr_alloc>,<mshr>:<N>:<merge>,<mq>:<rf>}
-gpgpu_const_cache:l1 N:64:64:2,L:R:f:N:L,S:2:32,4 # per-shader L1 constant memory cache  (READ-ONLY) config  {<nsets>:<bsize>:<assoc>,<rep>:<wr>:<alloc>:<wr_alloc>,<mshr>:<N>:<merge>,<mq>} 
-gpgpu_cache:il1     N:4:128:4,L:R:f:N:L,S:2:32,4 # shader L1 instruction cache config  {<nsets>:<bsize>:<assoc>,<rep>:<wr>:<alloc>:<wr_alloc>,<mshr>:<N>:<merge>,<mq>} 
-gpgpu_cache:dl1     N:32:128:4,L:L:m:N:H,S:64:8,8 # per-shader L1 data cache config  {<nsets>:<bsize>:<assoc>,<rep>:<wr>:<alloc>:<wr_alloc>,<mshr>:<N>:<merge>,<mq> | none}
-gpgpu_l1_banks                         1 # The number of L1 cache banks
-gpgpu_l1_banks_byte_interleaving                   32 # l1 banks byte interleaving granularity
-gpgpu_l1_banks_hashing_function                    0 # l1 banks hashing function
-gpgpu_l1_latency                      35 # L1 Hit Latency
-gpgpu_smem_latency                    26 # smem Latency
-gpgpu_cache:dl1PrefL1                 none # per-shader L1 data cache config  {<nsets>:<bsize>:<assoc>,<rep>:<wr>:<alloc>:<wr_alloc>,<mshr>:<N>:<merge>,<mq> | none}
-gpgpu_cache:dl1PrefShared                 none # per-shader L1 data cache config  {<nsets>:<bsize>:<assoc>,<rep>:<wr>:<alloc>:<wr_alloc>,<mshr>:<N>:<merge>,<mq> | none}
-gpgpu_gmem_skip_L1D                    1 # global memory access skip L1D cache (implements -Xptxas -dlcm=cg, default=no skip)
-gpgpu_perfect_mem                      0 # enable perfect memory mode (no cache miss)
-n_regfile_gating_group                    4 # group of lanes that should be read/written together)
-gpgpu_clock_gated_reg_file                    0 # enable clock gated reg file for power calculations
-gpgpu_clock_gated_lanes                    0 # enable clock gated lanes for power calculations
-gpgpu_shader_registers                32768 # Number of registers per shader core. Limits number of concurrent CTAs. (default 8192)
-gpgpu_registers_per_block                 8192 # Maximum number of registers per CTA. (default 8192)
-gpgpu_ignore_resources_limitation                    0 # gpgpu_ignore_resources_limitation (default 0)
-gpgpu_shader_cta                       8 # Maximum number of concurrent CTAs in shader (default 8)
-gpgpu_num_cta_barriers                   16 # Maximum number of named barriers per CTA (default 16)
-gpgpu_n_clusters                      15 # number of processing clusters
-gpgpu_n_cores_per_cluster                    1 # number of simd cores per cluster
-gpgpu_n_cluster_ejection_buffer_size                   32 # number of packets in ejection buffer
-gpgpu_n_ldst_response_buffer_size                    2 # number of response packets in ld/st unit ejection buffer
-gpgpu_shmem_per_block                49152 # Size of shared memory per thread block or CTA (default 48kB)
-gpgpu_shmem_size                   49152 # Size of shared memory per shader core (default 16kB)
-gpgpu_adaptive_cache_config                    0 # adaptive_cache_config
-gpgpu_shmem_sizeDefault                49152 # Size of shared memory per shader core (default 16kB)
-gpgpu_shmem_size_PrefL1                16384 # Size of shared memory per shader core (default 16kB)
-gpgpu_shmem_size_PrefShared                16384 # Size of shared memory per shader core (default 16kB)
-gpgpu_shmem_num_banks                   32 # Number of banks in the shared memory in each shader core (default 16)
-gpgpu_shmem_limited_broadcast                    0 # Limit shared memory to do one broadcast per cycle (default on)
-gpgpu_shmem_warp_parts                    1 # Number of portions a warp is divided into for shared memory bank conflict check 
-gpgpu_mem_unit_ports                    1 # The number of memory transactions allowed per core cycle
-gpgpu_shmem_warp_parts                    1 # Number of portions a warp is divided into for shared memory bank conflict check 
-gpgpu_warpdistro_shader                   -1 # Specify which shader core to collect the warp size distribution from
-gpgpu_warp_issue_shader                    0 # Specify which shader core to collect the warp issue distribution from
-gpgpu_local_mem_map                    1 # Mapping from local memory space address to simulated GPU physical address space (default = enabled)
-gpgpu_num_reg_banks                   16 # Number of register banks (default = 8)
-gpgpu_reg_bank_use_warp_id                    0 # Use warp ID in mapping registers to banks (default = off)
-gpgpu_sub_core_model                    0 # Sub Core Volta/Pascal model (default = off)
-gpgpu_enable_specialized_operand_collector                    1 # enable_specialized_operand_collector
-gpgpu_operand_collector_num_units_sp                    6 # number of collector units (default = 4)
-gpgpu_operand_collector_num_units_dp                    0 # number of collector units (default = 0)
-gpgpu_operand_collector_num_units_sfu                    8 # number of collector units (default = 4)
-gpgpu_operand_collector_num_units_int                    0 # number of collector units (default = 0)
-gpgpu_operand_collector_num_units_tensor_core                    4 # number of collector units (default = 4)
-gpgpu_operand_collector_num_units_mem                    2 # number of collector units (default = 2)
-gpgpu_operand_collector_num_units_gen                    0 # number of collector units (default = 0)
-gpgpu_operand_collector_num_in_ports_sp                    2 # number of collector unit in ports (default = 1)
-gpgpu_operand_collector_num_in_ports_dp                    0 # number of collector unit in ports (default = 0)
-gpgpu_operand_collector_num_in_ports_sfu                    1 # number of collector unit in ports (default = 1)
-gpgpu_operand_collector_num_in_ports_int                    0 # number of collector unit in ports (default = 0)
-gpgpu_operand_collector_num_in_ports_tensor_core                    1 # number of collector unit in ports (default = 1)
-gpgpu_operand_collector_num_in_ports_mem                    1 # number of collector unit in ports (default = 1)
-gpgpu_operand_collector_num_in_ports_gen                    0 # number of collector unit in ports (default = 0)
-gpgpu_operand_collector_num_out_ports_sp                    2 # number of collector unit in ports (default = 1)
-gpgpu_operand_collector_num_out_ports_dp                    0 # number of collector unit in ports (default = 0)
-gpgpu_operand_collector_num_out_ports_sfu                    1 # number of collector unit in ports (default = 1)
-gpgpu_operand_collector_num_out_ports_int                    0 # number of collector unit in ports (default = 0)
-gpgpu_operand_collector_num_out_ports_tensor_core                    1 # number of collector unit in ports (default = 1)
-gpgpu_operand_collector_num_out_ports_mem                    1 # number of collector unit in ports (default = 1)
-gpgpu_operand_collector_num_out_ports_gen                    0 # number of collector unit in ports (default = 0)
-gpgpu_coalesce_arch                   20 # Coalescing arch (GT200 = 13, Fermi = 20)
-gpgpu_num_sched_per_core                    2 # Number of warp schedulers per core
-gpgpu_max_insn_issue_per_warp                    1 # Max number of instructions that can be issued per warp in one cycle by scheduler (either 1 or 2)
-gpgpu_dual_issue_diff_exec_units                    1 # should dual issue use two different execution unit resources (Default = 1)
-gpgpu_simt_core_sim_order                    1 # Select the simulation order of cores in a cluster (0=Fix, 1=Round-Robin)
-gpgpu_pipeline_widths 2,0,0,1,1,2,0,0,1,1,2 # Pipeline widths ID_OC_SP,ID_OC_DP,ID_OC_INT,ID_OC_SFU,ID_OC_MEM,OC_EX_SP,OC_EX_DP,OC_EX_INT,OC_EX_SFU,OC_EX_MEM,EX_WB,ID_OC_TENSOR_CORE,OC_EX_TENSOR_CORE
-gpgpu_tensor_core_avail                    0 # Tensor Core Available (default=0)
-gpgpu_num_sp_units                     2 # Number of SP units (default=1)
-gpgpu_num_dp_units                     0 # Number of DP units (default=0)
-gpgpu_num_int_units                    0 # Number of INT units (default=0)
-gpgpu_num_sfu_units                    1 # Number of SF units (default=1)
-gpgpu_num_tensor_core_units                    0 # Number of tensor_core units (default=1)
-gpgpu_num_mem_units                    1 # Number if ldst units (default=1) WARNING: not hooked up to anything
-gpgpu_scheduler                      gto # Scheduler configuration: < lrr | gto | two_level_active > If two_level_active:<num_active_warps>:<inner_prioritization>:<outer_prioritization>For complete list of prioritization values see shader.h enum scheduler_prioritization_typeDefault: gto
-gpgpu_concurrent_kernel_sm                    0 # Support concurrent kernels on a SM (default = disabled)
-gpgpu_perfect_inst_const_cache                    0 # perfect inst and const cache mode, so all inst and const hits in the cache(default = disabled)
-gpgpu_inst_fetch_throughput                    1 # the number of fetched intruction per warp each cycle
-gpgpu_reg_file_port_throughput                    1 # the number ports of the register file
-specialized_unit_1         0,4,4,4,4,BRA # specialized unit config {<enabled>,<num_units>:<latency>:<initiation>,<ID_OC_SPEC>:<OC_EX_SPEC>,<NAME>}
-specialized_unit_2         0,4,4,4,4,BRA # specialized unit config {<enabled>,<num_units>:<latency>:<initiation>,<ID_OC_SPEC>:<OC_EX_SPEC>,<NAME>}
-specialized_unit_3         0,4,4,4,4,BRA # specialized unit config {<enabled>,<num_units>:<latency>:<initiation>,<ID_OC_SPEC>:<OC_EX_SPEC>,<NAME>}
-specialized_unit_4         0,4,4,4,4,BRA # specialized unit config {<enabled>,<num_units>:<latency>:<initiation>,<ID_OC_SPEC>:<OC_EX_SPEC>,<NAME>}
-specialized_unit_5         0,4,4,4,4,BRA # specialized unit config {<enabled>,<num_units>:<latency>:<initiation>,<ID_OC_SPEC>:<OC_EX_SPEC>,<NAME>}
-specialized_unit_6         0,4,4,4,4,BRA # specialized unit config {<enabled>,<num_units>:<latency>:<initiation>,<ID_OC_SPEC>:<OC_EX_SPEC>,<NAME>}
-specialized_unit_7         0,4,4,4,4,BRA # specialized unit config {<enabled>,<num_units>:<latency>:<initiation>,<ID_OC_SPEC>:<OC_EX_SPEC>,<NAME>}
-specialized_unit_8         0,4,4,4,4,BRA # specialized unit config {<enabled>,<num_units>:<latency>:<initiation>,<ID_OC_SPEC>:<OC_EX_SPEC>,<NAME>}
-gpgpu_perf_sim_memcpy                    1 # Fill the L2 cache on memcpy
-gpgpu_simple_dram_model                    0 # simple_dram_model with fixed latency and BW
-gpgpu_dram_scheduler                    1 # 0 = fifo, 1 = FR-FCFS (defaul)
-gpgpu_dram_partition_queues          64:64:64:64 # i2$:$2d:d2$:$2i
-l2_ideal                               0 # Use a ideal L2 cache that always hit
-gpgpu_cache:dl2     S:64:128:8,L:B:m:L:L,A:256:4,4:0,32 # unified banked L2 data cache config  {<nsets>:<bsize>:<assoc>,<rep>:<wr>:<alloc>:<wr_alloc>,<mshr>:<N>:<merge>,<mq>}
-gpgpu_cache:dl2_texture_only                    0 # L2 cache used for texture only
-gpgpu_n_mem                            6 # number of memory modules (e.g. memory controllers) in gpu
-gpgpu_n_sub_partition_per_mchannel                    2 # number of memory subpartition in each memory module
-gpgpu_n_mem_per_ctrlr                    2 # number of memory chips per memory controller
-gpgpu_memlatency_stat                   14 # track and display latency statistics 0x2 enables MC, 0x4 enables queue logs
-gpgpu_frfcfs_dram_sched_queue_size                   64 # 0 = unlimited (default); # entries per chip
-gpgpu_dram_return_queue_size                  116 # 0 = unlimited (default); # entries per chip
-gpgpu_dram_buswidth                    4 # default = 4 bytes (8 bytes per cycle at DDR)
-gpgpu_dram_burst_length                    8 # Burst length of each DRAM request (default = 4 data bus cycle)
-dram_data_command_freq_ratio                    4 # Frequency ratio between DRAM data bus and command bus (default = 2 times, i.e. DDR)
-gpgpu_dram_timing_opt nbk=16:CCD=2:RRD=6:RCD=12:RAS=28:RP=12:RC=40: CL=12:WL=4:CDLR=5:WR=12:nbkgrp=4:CCDL=3:RTPL=2 # DRAM timing parameters = {nbk:tCCD:tRRD:tRCD:tRAS:tRP:tRC:CL:WL:tCDLR:tWR:nbkgrp:tCCDL:tRTPL}
-gpgpu_l2_rop_latency                  120 # ROP queue latency (default 85)
-dram_latency                         100 # DRAM latency (default 30)
-dram_dual_bus_interface                    0 # dual_bus_interface (default = 0) 
-dram_bnk_indexing_policy                    0 # dram_bnk_indexing_policy (0 = normal indexing, 1 = Xoring with the higher bits) (Default = 0)
-dram_bnkgrp_indexing_policy                    1 # dram_bnkgrp_indexing_policy (0 = take higher bits, 1 = take lower bits) (Default = 0)
-dram_seperate_write_queue_enable                    0 # Seperate_Write_Queue_Enable
-dram_write_queue_size             32:28:16 # Write_Queue_Size
-dram_elimnate_rw_turnaround                    0 # elimnate_rw_turnaround i.e set tWTR and tRTW = 0
-icnt_flit_size                        40 # icnt_flit_size
-gpgpu_mem_addr_mapping dramid@8;00000000.00000000.00000000.00000000.0000RRRR.RRRRRRRR.BBBCCCCB.CCSSSSSS # mapping memory address to dram model {dramid@<start bit>;<memory address map>}
-gpgpu_mem_addr_test                    0 # run sweep test to check address mapping for aliased address
-gpgpu_mem_address_mask                    1 # 0 = old addressing mask, 1 = new addressing mask, 2 = new add. mask + flipped bank sel and chip sel bits
-gpgpu_memory_partition_indexing                    0 # 0 = no indexing, 1 = bitwise xoring, 2 = IPoly, 3 = custom indexing
-gpuwattch_xml_file  gpuwattch_gtx480.xml # GPUWattch XML file
-power_simulation_enabled                    1 # Turn on power simulator (1=On, 0=Off)
-power_per_cycle_dump                    0 # Dump detailed power output each cycle
-power_trace_enabled                    0 # produce a file for the power trace (1=On, 0=Off)
-power_trace_zlevel                     6 # Compression level of the power trace output log (0=no comp, 9=highest)
-steady_power_levels_enabled                    0 # produce a file for the steady power levels (1=On, 0=Off)
-steady_state_definition                  8:4 # allowed deviation:number of samples
-gpgpu_max_cycle                        0 # terminates gpu simulation early (0 = no limit)
-gpgpu_max_insn                 100000000 # terminates gpu simulation early (0 = no limit)
-gpgpu_max_cta                          0 # terminates gpu simulation early (0 = no limit)
-gpgpu_max_completed_cta                    0 # terminates gpu simulation early (0 = no limit)
-gpgpu_runtime_stat                   500 # display runtime statistics such as dram utilization {<freq>:<flag>}
-liveness_message_freq                    1 # Minimum number of seconds between simulation liveness messages (0 = always print)
-gpgpu_compute_capability_major                    2 # Major compute capability version number
-gpgpu_compute_capability_minor                    0 # Minor compute capability version number
-gpgpu_flush_l1_cache                    1 # Flush L1 cache at the end of each kernel call
-gpgpu_flush_l2_cache                    0 # Flush L2 cache at the end of each kernel call
-gpgpu_deadlock_detect                    1 # Stop the simulation at deadlock (1=on (default), 0=off)
-gpgpu_ptx_instruction_classification                    0 # if enabled will classify ptx instruction types per kernel (Max 255 kernels now)
-gpgpu_ptx_sim_mode                     0 # Select between Performance (default) or Functional simulation (1)
-gpgpu_clock_domains 700.0:700.0:700.0:924.0 # Clock Domain Frequencies in MhZ {<Core Clock>:<ICNT Clock>:<L2 Clock>:<DRAM Clock>}
-gpgpu_max_concurrent_kernel                    8 # maximum kernels that can run concurrently on GPU
-gpgpu_cflog_interval                    0 # Interval between each snapshot in control flow logger
-visualizer_enabled                     0 # Turn on visualizer output (1=On, 0=Off)
-visualizer_outputfile                 NULL # Specifies the output log file for visualizer
-visualizer_zlevel                      6 # Compression level of the visualizer output log (0=no comp, 9=highest)
-gpgpu_stack_size_limit                 1024 # GPU thread stack size
-gpgpu_heap_size_limit              8388608 # GPU malloc heap size 
-gpgpu_runtime_sync_depth_limit                    2 # GPU device runtime synchronize depth
-gpgpu_runtime_pending_launch_count_limit                 2048 # GPU device runtime pending launch count
-trace_enabled                          0 # Turn on traces
-trace_components                    none # comma seperated list of traces to enable. Complete list found in trace_streams.tup. Default none
-trace_sampling_core                    0 # The core which is printed using CORE_DPRINTF. Default 0
-trace_sampling_memory_partition                   -1 # The memory partition which is printed using MEMPART_DPRINTF. Default -1 (i.e. all)
-enable_ptx_file_line_stats                    1 # Turn on PTX source line statistic profiling. (1 = On)
-ptx_line_stats_filename gpgpu_inst_stats.txt # Output file for PTX source line statistics.
-gpgpu_kernel_launch_latency                    0 # Kernel launch latency in cycles. Default: 0
-gpgpu_cdp_enabled                      0 # Turn on CDP
-gpgpu_TB_launch_latency                    0 # thread block launch latency in cycles. Default: 0
DRAM Timing Options:
nbk                                    16 # number of banks
CCD                                     2 # column to column delay
RRD                                     6 # minimal delay between activation of rows in different banks
RCD                                    12 # row to column delay
RAS                                    28 # time needed to activate row
RP                                     12 # time needed to precharge (deactivate) row
RC                                     40 # row cycle time
CDLR                                    5 # switching from write to read (changes tWTR)
WR                                     12 # last data-in to row precharge
CL                                     12 # CAS latency
WL                                      4 # Write latency
nbkgrp                                  4 # number of bank groups
CCDL                                    3 # column to column delay between accesses to different bank groups
RTPL                                    2 # read to precharge delay between accesses to different bank groups
Total number of memory sub partition = 12
addr_dec_mask[CHIP]  = 0000000000000000 	high:64 low:0
addr_dec_mask[BK]    = 000000000000e100 	high:16 low:8
addr_dec_mask[ROW]   = 000000000fff0000 	high:28 low:16
addr_dec_mask[COL]   = 0000000000001eff 	high:13 low:0
addr_dec_mask[BURST] = 000000000000003f 	high:6 low:0
sub_partition_id_mask = 0000000000000100
GPGPU-Sim uArch: clock freqs: 700000000.000000:700000000.000000:700000000.000000:924000000.000000
GPGPU-Sim uArch: clock periods: 0.00000000142857142857:0.00000000142857142857:0.00000000142857142857:0.00000000108225108225
*** Initializing Memory Statistics ***
GPGPU-Sim uArch: interconnect node map (shaderID+MemID to icntID)
GPGPU-Sim uArch: Memory nodes ID start from index: 15
GPGPU-Sim uArch:    0   1   2   3   4
GPGPU-Sim uArch:    5   6   7   8   9
GPGPU-Sim uArch:   10  11  12  13  14
GPGPU-Sim uArch:   15  16  17  18  19
GPGPU-Sim uArch:   20  21  22  23  24
GPGPU-Sim uArch:   25  26
GPGPU-Sim uArch: interconnect node reverse map (icntID to shaderID+MemID)
GPGPU-Sim uArch: Memory nodes start from ID: 15
GPGPU-Sim uArch:    0   1   2   3   4
GPGPU-Sim uArch:    5   6   7   8   9
GPGPU-Sim uArch:   10  11  12  13  14
GPGPU-Sim uArch:   15  16  17  18  19
GPGPU-Sim uArch:   20  21  22  23  24
GPGPU-Sim uArch:   25  26
2cceb431899771a6b490ad81a28094c0  /code/rodinia/BP/backprop-rodinia-3.1
Extracting PTX file and ptxas options    1: backprop-rodinia-3.1.sm_30.ptx -arch=sm_30
Extracting PTX file and ptxas options    2: backprop-rodinia-3.2.sm_35.ptx -arch=sm_35
Extracting PTX file and ptxas options    3: backprop-rodinia-3.3.sm_50.ptx -arch=sm_50
Extracting PTX file and ptxas options    4: backprop-rodinia-3.4.sm_60.ptx -arch=sm_60
Extracting PTX file and ptxas options    5: backprop-rodinia-3.5.sm_62.ptx -arch=sm_62
GPGPU-Sim uArch: performance model initialization complete.
self exe links to: /code/rodinia/BP/backprop-rodinia-3.1
self exe links to: /code/rodinia/BP/backprop-rodinia-3.1
10.1
GPGPU-Sim PTX: __cudaRegisterFatBinary, fat_cubin_handle = 1, filename=default
self exe links to: /code/rodinia/BP/backprop-rodinia-3.1
Running md5sum using "md5sum /code/rodinia/BP/backprop-rodinia-3.1 "
self exe links to: /code/rodinia/BP/backprop-rodinia-3.1
Extracting specific PTX file named backprop-rodinia-3.1.sm_30.ptx 
Extracting specific PTX file named backprop-rodinia-3.2.sm_35.ptx 
Extracting specific PTX file named backprop-rodinia-3.3.sm_50.ptx 
Extracting specific PTX file named backprop-rodinia-3.4.sm_60.ptx 
Extracting specific PTX file named backprop-rodinia-3.5.sm_62.ptx 
GPGPU-Sim PTX: __cudaRegisterFunction _Z24bpnn_adjust_weights_cudaPfiS_iS_S_ : hostFun 0x0x402160, fat_cubin_handle = 1
GPGPU-Sim PTX: Parsing backprop-rodinia-3.1.sm_30.ptx
GPGPU-Sim PTX: allocating shared region for "_ZZ22bpnn_layerforward_CUDAPfS_S_S_iiE10input_node" from 0x0 to 0x40 (shared memory space)
GPGPU-Sim PTX: allocating shared region for "_ZZ22bpnn_layerforward_CUDAPfS_S_S_iiE13weight_matrix" from 0x80 to 0x480 (shared memory space)
GPGPU-Sim PTX: instruction assembly for function '_Z22bpnn_layerforward_CUDAPfS_S_S_ii'...   done.
GPGPU-Sim PTX: instruction assembly for function '_Z24bpnn_adjust_weights_cudaPfiS_iS_S_'...   done.
GPGPU-Sim PTX: finished parsing EMBEDDED .ptx file backprop-rodinia-3.1.sm_30.ptx
GPGPU-Sim PTX: Parsing backprop-rodinia-3.2.sm_35.ptx
GPGPU-Sim PTX: Warning %p0 was declared previous at backprop-rodinia-3.1.sm_30.ptx:26 skipping new declaration
GPGPU-Sim PTX: Warning %p1 was declared previous at backprop-rodinia-3.1.sm_30.ptx:26 skipping new declaration
GPGPU-Sim PTX: Warning %p2 was declared previous at backprop-rodinia-3.1.sm_30.ptx:26 skipping new declaration
GPGPU-Sim PTX: Warning %p3 was declared previous at backprop-rodinia-3.1.sm_30.ptx:26 skipping new declaration
GPGPU-Sim PTX: Warning %p4 was declared previous at backprop-rodinia-3.1.sm_30.ptx:26 skipping new declaration
GPGPU-Sim PTX: Warning %p5 was declared previous at backprop-rodinia-3.1.sm_30.ptx:26 skipping new declaration
GPGPU-Sim PTX: Warning %f0 was declared previous at backprop-rodinia-3.1.sm_30.ptx:27 skipping new declaration
GPGPU-Sim PTX: Warning %f1 was declared previous at backprop-rodinia-3.1.sm_30.ptx:27 skipping new declaration
GPGPU-Sim PTX: Warning %f2 was declared previous at backprop-rodinia-3.1.sm_30.ptx:27 skipping new declaration
GPGPU-Sim PTX: Warning %f3 was declared previous at backprop-rodinia-3.1.sm_30.ptx:27 skipping new declaration
GPGPU-Sim PTX: Warning %f4 was declared previous at backprop-rodinia-3.1.sm_30.ptx:27 skipping new declaration
GPGPU-Sim PTX: Warning %f5 was declared previous at backprop-rodinia-3.1.sm_30.ptx:27 skipping new declaration
GPGPU-Sim PTX: Warning %f6 was declared previous at backprop-rodinia-3.1.sm_30.ptx:27 skipping new declaration
GPGPU-Sim PTX: Warning %f7 was declared previous at backprop-rodinia-3.1.sm_30.ptx:27 skipping new declaration
GPGPU-Sim PTX: Warning %f8 was declared previous at backprop-rodinia-3.1.sm_30.ptx:27 skipping new declaration
GPGPU-Sim PTX: Warning %f9 was declared previous at backprop-rodinia-3.1.sm_30.ptx:27 skipping new declaration
GPGPU-Sim PTX: Warning %f10 was declared previous at backprop-rodinia-3.1.sm_30.ptx:27 skipping new declaration
GPGPU-Sim PTX: Warning %f11 was declared previous at backprop-rodinia-3.1.sm_30.ptx:27 skipping new declaration
GPGPU-Sim PTX: Warning %f12 was declared previous at backprop-rodinia-3.1.sm_30.ptx:27 skipping new declaration
GPGPU-Sim PTX: Warning %f13 was declared previous at backprop-rodinia-3.1.sm_30.ptx:27 skipping new declaration
GPGPU-Sim PTX: Warning %f14 was declared previous at backprop-rodinia-3.1.sm_30.ptx:27 skipping new declaration
GPGPU-Sim PTX: Warning %f15 was declared previous at backprop-rodinia-3.1.sm_30.ptx:27 skipping new declaration
GPGPU-Sim PTX: Warning %f16 was declared previous at backprop-rodinia-3.1.sm_30.ptx:27 skipping new declaration
GPGPU-Sim PTX: Warning %f17 was declared previous at backprop-rodinia-3.1.sm_30.ptx:27 skipping new declaration
GPGPU-Sim PTX: Warning %f18 was declared previous at backprop-rodinia-3.1.sm_30.ptx:27 skipping new declaration
GPGPU-Sim PTX: Warning %f19 was declared previous at backprop-rodinia-3.1.sm_30.ptx:27 skipping new declaration
GPGPU-Sim PTX: Warning %f20 was declared previous at backprop-rodinia-3.1.sm_30.ptx:27 skipping new declaration
GPGPU-Sim PTX: Warning %r0 was declared previous at backprop-rodinia-3.1.sm_30.ptx:28 skipping new declaration
GPGPU-Sim PTX: Warning %r1 was declared previous at backprop-rodinia-3.1.sm_30.ptx:28 skipping new declaration
GPGPU-Sim PTX: Warning %r2 was declared previous at backprop-rodinia-3.1.sm_30.ptx:28 skipping new declaration
GPGPU-Sim PTX: Warning %r3 was declared previous at backprop-rodinia-3.1.sm_30.ptx:28 skipping new declaration
GPGPU-Sim PTX: Warning %r4 was declared previous at backprop-rodinia-3.1.sm_30.ptx:28 skipping new declaration
GPGPU-Sim PTX: Warning %r5 was declared previous at backprop-rodinia-3.1.sm_30.ptx:28 skipping new declaration
GPGPU-Sim PTX: Warning %r6 was declared previous at backprop-rodinia-3.1.sm_30.ptx:28 skipping new declaration
GPGPU-Sim PTX: Warning %r7 was declared previous at backprop-rodinia-3.1.sm_30.ptx:28 skipping new declaration
GPGPU-Sim PTX: Warning %r8 was declared previous at backprop-rodinia-3.1.sm_30.ptx:28 skipping new declaration
GPGPU-Sim PTX: Warning %r9 was declared previous at backprop-rodinia-3.1.sm_30.ptx:28 skipping new declaration
GPGPU-Sim PTX: Warning %r10 was declared previous at backprop-rodinia-3.1.sm_30.ptx:28 skipping new declaration
GPGPU-Sim PTX: Warning %r11 was declared previous at backprop-rodinia-3.1.sm_30.ptx:28 skipping new declaration
GPGPU-Sim PTX: Warning %r12 was declared previous at backprop-rodinia-3.1.sm_30.ptx:28 skipping new declaration
GPGPU-Sim PTX: Warning %r13 was declared previous at backprop-rodinia-3.1.sm_30.ptx:28 skipping new declaration
GPGPU-Sim PTX: Warning %r14 was declared previous at backprop-rodinia-3.1.sm_30.ptx:28 skipping new declaration
GPGPU-Sim PTX: Warning %r15 was declared previous at backprop-rodinia-3.1.sm_30.ptx:28 skipping new declaration
GPGPU-Sim PTX: Warning %r16 was declared previous at backprop-rodinia-3.1.sm_30.ptx:28 skipping new declaration
GPGPU-Sim PTX: Warning %r17 was declared previous at backprop-rodinia-3.1.sm_30.ptx:28 skipping new declaration
GPGPU-Sim PTX: Warning %r18 was declared previous at backprop-rodinia-3.1.sm_30.ptx:28 skipping new declaration
GPGPU-Sim PTX: Warning %r19 was declared previous at backprop-rodinia-3.1.sm_30.ptx:28 skipping new declaration
GPGPU-Sim PTX: Warning %r20 was declared previous at backprop-rodinia-3.1.sm_30.ptx:28 skipping new declaration
GPGPU-Sim PTX: Warning %r21 was declared previous at backprop-rodinia-3.1.sm_30.ptx:28 skipping new declaration
GPGPU-Sim PTX: Warning %r22 was declared previous at backprop-rodinia-3.1.sm_30.ptx:28 skipping new declaration
GPGPU-Sim PTX: Warning %r23 was declared previous at backprop-rodinia-3.1.sm_30.ptx:28 skipping new declaration
GPGPU-Sim PTX: Warning %r24 was declared previous at backprop-rodinia-3.1.sm_30.ptx:28 skipping new declaration
GPGPU-Sim PTX: Warning %r25 was declared previous at backprop-rodinia-3.1.sm_30.ptx:28 skipping new declaration
GPGPU-Sim PTX: Warning %r26 was declared previous at backprop-rodinia-3.1.sm_30.ptx:28 skipping new declaration
GPGPU-Sim PTX: Warning %r27 was declared previous at backprop-rodinia-3.1.sm_30.ptx:28 skipping new declaration
GPGPU-Sim PTX: Warning %r28 was declared previous at backprop-rodinia-3.1.sm_30.ptx:28 skipping new declaration
GPGPU-Sim PTX: Warning %r29 was declared previous at backprop-rodinia-3.1.sm_30.ptx:28 skipping new declaration
GPGPU-Sim PTX: Warning %r30 was declared previous at backprop-rodinia-3.1.sm_30.ptx:28 skipping new declaration
GPGPU-Sim PTX: Warning %r31 was declared previous at backprop-rodinia-3.1.sm_30.ptx:28 skipping new declaration
GPGPU-Sim PTX: Warning %r32 was declared previous at backprop-rodinia-3.1.sm_30.ptx:28 skipping new declaration
GPGPU-Sim PTX: Warning %r33 was declared previous at backprop-rodinia-3.1.sm_30.ptx:28 skipping new declaration
GPGPU-Sim PTX: Warning %r34 was declared previous at backprop-rodinia-3.1.sm_30.ptx:28 skipping new declaration
GPGPU-Sim PTX: Warning %r35 was declared previous at backprop-rodinia-3.1.sm_30.ptx:28 skipping new declaration
GPGPU-Sim PTX: Warning %r36 was declared previous at backprop-rodinia-3.1.sm_30.ptx:28 skipping new declaration
GPGPU-Sim PTX: Warning %rd0 was declared previous at backprop-rodinia-3.1.sm_30.ptx:29 skipping new declaration
GPGPU-Sim PTX: Warning %rd1 was declared previous at backprop-rodinia-3.1.sm_30.ptx:29 skipping new declaration
GPGPU-Sim PTX: Warning %rd2 was declared previous at backprop-rodinia-3.1.sm_30.ptx:29 skipping new declaration
GPGPU-Sim PTX: Warning %rd3 was declared previous at backprop-rodinia-3.1.sm_30.ptx:29 skipping new declaration
GPGPU-Sim PTX: Warning %rd4 was declared previous at backprop-rodinia-3.1.sm_30.ptx:29 skipping new declaration
GPGPU-Sim PTX: Warning %rd5 was declared previous at backprop-rodinia-3.1.sm_30.ptx:29 skipping new declaration
GPGPU-Sim PTX: Warning %rd6 was declared previous at backprop-rodinia-3.1.sm_30.ptx:29 skipping new declaration
GPGPU-Sim PTX: Warning %rd7 was declared previous at backprop-rodinia-3.1.sm_30.ptx:29 skipping new declaration
GPGPU-Sim PTX: Warning %rd8 was declared previous at backprop-rodinia-3.1.sm_30.ptx:29 skipping new declaration
GPGPU-Sim PTX: Warning %rd9 was declared previous at backprop-rodinia-3.1.sm_30.ptx:29 skipping new declaration
GPGPU-Sim PTX: Warning %rd10 was declared previous at backprop-rodinia-3.1.sm_30.ptx:29 skipping new declaration
GPGPU-Sim PTX: Warning %rd11 was declared previous at backprop-rodinia-3.1.sm_30.ptx:29 skipping new declaration
GPGPU-Sim PTX: Warning %rd12 was declared previous at backprop-rodinia-3.1.sm_30.ptx:29 skipping new declaration
GPGPU-Sim PTX: Warning _ZZ22bpnn_layerforward_CUDAPfS_S_S_iiE10input_node was declared previous at backprop-rodinia-3.1.sm_30.ptx:31 skipping new declaration
GPGPU-Sim PTX: Warning _ZZ22bpnn_layerforward_CUDAPfS_S_S_iiE13weight_matrix was declared previous at backprop-rodinia-3.1.sm_30.ptx:33 skipping new declaration
GPGPU-Sim PTX: instruction assembly for function '_Z22bpnn_layerforward_CUDAPfS_S_S_ii'...   done.
GPGPU-Sim PTX: Warning %p0 was declared previous at backprop-rodinia-3.1.sm_30.ptx:145 skipping new declaration
GPGPU-Sim PTX: Warning %p1 was declared previous at backprop-rodinia-3.1.sm_30.ptx:145 skipping new declaration
GPGPU-Sim PTX: Warning %f0 was declared previous at backprop-rodinia-3.1.sm_30.ptx:146 skipping new declaration
GPGPU-Sim PTX: Warning %f1 was declared previous at backprop-rodinia-3.1.sm_30.ptx:146 skipping new declaration
GPGPU-Sim PTX: Warning %f2 was declared previous at backprop-rodinia-3.1.sm_30.ptx:146 skipping new declaration
GPGPU-Sim PTX: Warning %f3 was declared previous at backprop-rodinia-3.1.sm_30.ptx:146 skipping new declaration
GPGPU-Sim PTX: Warning %f4 was declared previous at backprop-rodinia-3.1.sm_30.ptx:146 skipping new declaration
GPGPU-Sim PTX: Warning %f5 was declared previous at backprop-rodinia-3.1.sm_30.ptx:146 skipping new declaration
GPGPU-Sim PTX: Warning %f6 was declared previous at backprop-rodinia-3.1.sm_30.ptx:146 skipping new declaration
GPGPU-Sim PTX: Warning %f7 was declared previous at backprop-rodinia-3.1.sm_30.ptx:146 skipping new declaration
GPGPU-Sim PTX: Warning %f8 was declared previous at backprop-rodinia-3.1.sm_30.ptx:146 skipping new declaration
GPGPU-Sim PTX: Warning %f9 was declared previous at backprop-rodinia-3.1.sm_30.ptx:146 skipping new declaration
GPGPU-Sim PTX: Warning %f10 was declared previous at backprop-rodinia-3.1.sm_30.ptx:146 skipping new declaration
GPGPU-Sim PTX: Warning %f11 was declared previous at backprop-rodinia-3.1.sm_30.ptx:146 skipping new declaration
GPGPU-Sim PTX: Warning %f12 was declared previous at backprop-rodinia-3.1.sm_30.ptx:146 skipping new declaration
GPGPU-Sim PTX: Warning %f13 was declared previous at backprop-rodinia-3.1.sm_30.ptx:146 skipping new declaration
GPGPU-Sim PTX: Warning %f14 was declared previous at backprop-rodinia-3.1.sm_30.ptx:146 skipping new declaration
GPGPU-Sim PTX: Warning %f15 was declared previous at backprop-rodinia-3.1.sm_30.ptx:146 skipping new declaration
GPGPU-Sim PTX: Warning %f16 was declared previous at backprop-rodinia-3.1.sm_30.ptx:146 skipping new declaration
GPGPU-Sim PTX: Warning %r0 was declared previous at backprop-rodinia-3.1.sm_30.ptx:147 skipping new declaration
GPGPU-Sim PTX: Warning %r1 was declared previous at backprop-rodinia-3.1.sm_30.ptx:147 skipping new declaration
GPGPU-Sim PTX: Warning %r2 was declared previous at backprop-rodinia-3.1.sm_30.ptx:147 skipping new declaration
GPGPU-Sim PTX: Warning %r3 was declared previous at backprop-rodinia-3.1.sm_30.ptx:147 skipping new declaration
GPGPU-Sim PTX: Warning %r4 was declared previous at backprop-rodinia-3.1.sm_30.ptx:147 skipping new declaration
GPGPU-Sim PTX: Warning %r5 was declared previous at backprop-rodinia-3.1.sm_30.ptx:147 skipping new declaration
GPGPU-Sim PTX: Warning %r6 was declared previous at backprop-rodinia-3.1.sm_30.ptx:147 skipping new declaration
GPGPU-Sim PTX: Warning %r7 was declared previous at backprop-rodinia-3.1.sm_30.ptx:147 skipping new declaration
GPGPU-Sim PTX: Warning %r8 was declared previous at backprop-rodinia-3.1.sm_30.ptx:147 skipping new declaration
GPGPU-Sim PTX: Warning %r9 was declared previous at backprop-rodinia-3.1.sm_30.ptx:147 skipping new declaration
GPGPU-Sim PTX: Warning %r10 was declared previous at backprop-rodinia-3.1.sm_30.ptx:147 skipping new declaration
GPGPU-Sim PTX: Warning %r11 was declared previous at backprop-rodinia-3.1.sm_30.ptx:147 skipping new declaration
GPGPU-Sim PTX: Warning %fd0 was declared previous at backprop-rodinia-3.1.sm_30.ptx:148 skipping new declaration
GPGPU-Sim PTX: Warning %fd1 was declared previous at backprop-rodinia-3.1.sm_30.ptx:148 skipping new declaration
GPGPU-Sim PTX: Warning %fd2 was declared previous at backprop-rodinia-3.1.sm_30.ptx:148 skipping new declaration
GPGPU-Sim PTX: Warning %fd3 was declared previous at backprop-rodinia-3.1.sm_30.ptx:148 skipping new declaration
GPGPU-Sim PTX: Warning %fd4 was declared previous at backprop-rodinia-3.1.sm_30.ptx:148 skipping new declaration
GPGPU-Sim PTX: Warning %fd5 was declared previous at backprop-rodinia-3.1.sm_30.ptx:148 skipping new declaration
GPGPU-Sim PTX: Warning %fd6 was declared previous at backprop-rodinia-3.1.sm_30.ptx:148 skipping new declaration
GPGPU-Sim PTX: Warning %fd7 was declared previous at backprop-rodinia-3.1.sm_30.ptx:148 skipping new declaration
GPGPU-Sim PTX: Warning %fd8 was declared previous at backprop-rodinia-3.1.sm_30.ptx:148 skipping new declaration
GPGPU-Sim PTX: Warning %fd9 was declared previous at backprop-rodinia-3.1.sm_30.ptx:148 skipping new declaration
GPGPU-Sim PTX: Warning %fd10 was declared previous at backprop-rodinia-3.1.sm_30.ptx:148 skipping new declaration
GPGPU-Sim PTX: Warning %fd11 was declared previous at backprop-rodinia-3.1.sm_30.ptx:148 skipping new declaration
GPGPU-Sim PTX: Warning %fd12 was declared previous at backprop-rodinia-3.1.sm_30.ptx:148 skipping new declaration
GPGPU-Sim PTX: Warning %fd13 was declared previous at backprop-rodinia-3.1.sm_30.ptx:148 skipping new declaration
GPGPU-Sim PTX: Warning %fd14 was declared previous at backprop-rodinia-3.1.sm_30.ptx:148 skipping new declaration
GPGPU-Sim PTX: Warning %fd15 was declared previous at backprop-rodinia-3.1.sm_30.ptx:148 skipping new declaration
GPGPU-Sim PTX: Warning %fd16 was declared previous at backprop-rodinia-3.1.sm_30.ptx:148 skipping new declaration
GPGPU-Sim PTX: Warning %fd17 was declared previous at backprop-rodinia-3.1.sm_30.ptx:148 skipping new declaration
GPGPU-Sim PTX: Warning %fd18 was declared previous at backprop-rodinia-3.1.sm_30.ptx:148 skipping new declaration
GPGPU-Sim PTX: Warning %fd19 was declared previous at backprop-rodinia-3.1.sm_30.ptx:148 skipping new declaration
GPGPU-Sim PTX: Warning %fd20 was declared previous at backprop-rodinia-3.1.sm_30.ptx:148 skipping new declaration
GPGPU-Sim PTX: Warning %fd21 was declared previous at backprop-rodinia-3.1.sm_30.ptx:148 skipping new declaration
GPGPU-Sim PTX: Warning %fd22 was declared previous at backprop-rodinia-3.1.sm_30.ptx:148 skipping new declaration
GPGPU-Sim PTX: Warning %fd23 was declared previous at backprop-rodinia-3.1.sm_30.ptx:148 skipping new declaration
GPGPU-Sim PTX: Warning %fd24 was declared previous at backprop-rodinia-3.1.sm_30.ptx:148 skipping new declaration
GPGPU-Sim PTX: Warning %rd0 was declared previous at backprop-rodinia-3.1.sm_30.ptx:149 skipping new declaration
GPGPU-Sim PTX: Warning %rd1 was declared previous at backprop-rodinia-3.1.sm_30.ptx:149 skipping new declaration
GPGPU-Sim PTX: Warning %rd2 was declared previous at backprop-rodinia-3.1.sm_30.ptx:149 skipping new declaration
GPGPU-Sim PTX: Warning %rd3 was declared previous at backprop-rodinia-3.1.sm_30.ptx:149 skipping new declaration
GPGPU-Sim PTX: Warning %rd4 was declared previous at backprop-rodinia-3.1.sm_30.ptx:149 skipping new declaration
GPGPU-Sim PTX: Warning %rd5 was declared previous at backprop-rodinia-3.1.sm_30.ptx:149 skipping new declaration
GPGPU-Sim PTX: Warning %rd6 was declared previous at backprop-rodinia-3.1.sm_30.ptx:149 skipping new declaration
GPGPU-Sim PTX: Warning %rd7 was declared previous at backprop-rodinia-3.1.sm_30.ptx:149 skipping new declaration
GPGPU-Sim PTX: Warning %rd8 was declared previous at backprop-rodinia-3.1.sm_30.ptx:149 skipping new declaration
GPGPU-Sim PTX: Warning %rd9 was declared previous at backprop-rodinia-3.1.sm_30.ptx:149 skipping new declaration
GPGPU-Sim PTX: Warning %rd10 was declared previous at backprop-rodinia-3.1.sm_30.ptx:149 skipping new declaration
GPGPU-Sim PTX: Warning %rd11 was declared previous at backprop-rodinia-3.1.sm_30.ptx:149 skipping new declaration
GPGPU-Sim PTX: Warning %rd12 was declared previous at backprop-rodinia-3.1.sm_30.ptx:149 skipping new declaration
GPGPU-Sim PTX: Warning %rd13 was declared previous at backprop-rodinia-3.1.sm_30.ptx:149 skipping new declaration
GPGPU-Sim PTX: Warning %rd14 was declared previous at backprop-rodinia-3.1.sm_30.ptx:149 skipping new declaration
GPGPU-Sim PTX: Warning %rd15 was declared previous at backprop-rodinia-3.1.sm_30.ptx:149 skipping new declaration
GPGPU-Sim PTX: Warning %rd16 was declared previous at backprop-rodinia-3.1.sm_30.ptx:149 skipping new declaration
GPGPU-Sim PTX: Warning %rd17 was declared previous at backprop-rodinia-3.1.sm_30.ptx:149 skipping new declaration
GPGPU-Sim PTX: Warning %rd18 was declared previous at backprop-rodinia-3.1.sm_30.ptx:149 skipping new declaration
GPGPU-Sim PTX: instruction assembly for function '_Z24bpnn_adjust_weights_cudaPfiS_iS_S_'...   done.
GPGPU-Sim PTX: finished parsing EMBEDDED .ptx file backprop-rodinia-3.2.sm_35.ptx
GPGPU-Sim PTX: Parsing backprop-rodinia-3.3.sm_50.ptx
GPGPU-Sim PTX: Warning %p0 was declared previous at backprop-rodinia-3.1.sm_30.ptx:26 skipping new declaration
GPGPU-Sim PTX: Warning %p1 was declared previous at backprop-rodinia-3.1.sm_30.ptx:26 skipping new declaration
GPGPU-Sim PTX: Warning %p2 was declared previous at backprop-rodinia-3.1.sm_30.ptx:26 skipping new declaration
GPGPU-Sim PTX: Warning %p3 was declared previous at backprop-rodinia-3.1.sm_30.ptx:26 skipping new declaration
GPGPU-Sim PTX: Warning %p4 was declared previous at backprop-rodinia-3.1.sm_30.ptx:26 skipping new declaration
GPGPU-Sim PTX: Warning %p5 was declared previous at backprop-rodinia-3.1.sm_30.ptx:26 skipping new declaration
GPGPU-Sim PTX: Warning %f0 was declared previous at backprop-rodinia-3.1.sm_30.ptx:27 skipping new declaration
GPGPU-Sim PTX: Warning %f1 was declared previous at backprop-rodinia-3.1.sm_30.ptx:27 skipping new declaration
GPGPU-Sim PTX: Warning %f2 was declared previous at backprop-rodinia-3.1.sm_30.ptx:27 skipping new declaration
GPGPU-Sim PTX: Warning %f3 was declared previous at backprop-rodinia-3.1.sm_30.ptx:27 skipping new declaration
GPGPU-Sim PTX: Warning %f4 was declared previous at backprop-rodinia-3.1.sm_30.ptx:27 skipping new declaration
GPGPU-Sim PTX: Warning %f5 was declared previous at backprop-rodinia-3.1.sm_30.ptx:27 skipping new declaration
GPGPU-Sim PTX: Warning %f6 was declared previous at backprop-rodinia-3.1.sm_30.ptx:27 skipping new declaration
GPGPU-Sim PTX: Warning %f7 was declared previous at backprop-rodinia-3.1.sm_30.ptx:27 skipping new declaration
GPGPU-Sim PTX: Warning %f8 was declared previous at backprop-rodinia-3.1.sm_30.ptx:27 skipping new declaration
GPGPU-Sim PTX: Warning %f9 was declared previous at backprop-rodinia-3.1.sm_30.ptx:27 skipping new declaration
GPGPU-Sim PTX: Warning %f10 was declared previous at backprop-rodinia-3.1.sm_30.ptx:27 skipping new declaration
GPGPU-Sim PTX: Warning %f11 was declared previous at backprop-rodinia-3.1.sm_30.ptx:27 skipping new declaration
GPGPU-Sim PTX: Warning %f12 was declared previous at backprop-rodinia-3.1.sm_30.ptx:27 skipping new declaration
GPGPU-Sim PTX: Warning %f13 was declared previous at backprop-rodinia-3.1.sm_30.ptx:27 skipping new declaration
GPGPU-Sim PTX: Warning %f14 was declared previous at backprop-rodinia-3.1.sm_30.ptx:27 skipping new declaration
GPGPU-Sim PTX: Warning %f15 was declared previous at backprop-rodinia-3.1.sm_30.ptx:27 skipping new declaration
GPGPU-Sim PTX: Warning %f16 was declared previous at backprop-rodinia-3.1.sm_30.ptx:27 skipping new declaration
GPGPU-Sim PTX: Warning %f17 was declared previous at backprop-rodinia-3.1.sm_30.ptx:27 skipping new declaration
GPGPU-Sim PTX: Warning %f18 was declared previous at backprop-rodinia-3.1.sm_30.ptx:27 skipping new declaration
GPGPU-Sim PTX: Warning %f19 was declared previous at backprop-rodinia-3.1.sm_30.ptx:27 skipping new declaration
GPGPU-Sim PTX: Warning %f20 was declared previous at backprop-rodinia-3.1.sm_30.ptx:27 skipping new declaration
GPGPU-Sim PTX: Warning %r0 was declared previous at backprop-rodinia-3.1.sm_30.ptx:28 skipping new declaration
GPGPU-Sim PTX: Warning %r1 was declared previous at backprop-rodinia-3.1.sm_30.ptx:28 skipping new declaration
GPGPU-Sim PTX: Warning %r2 was declared previous at backprop-rodinia-3.1.sm_30.ptx:28 skipping new declaration
GPGPU-Sim PTX: Warning %r3 was declared previous at backprop-rodinia-3.1.sm_30.ptx:28 skipping new declaration
GPGPU-Sim PTX: Warning %r4 was declared previous at backprop-rodinia-3.1.sm_30.ptx:28 skipping new declaration
GPGPU-Sim PTX: Warning %r5 was declared previous at backprop-rodinia-3.1.sm_30.ptx:28 skipping new declaration
GPGPU-Sim PTX: Warning %r6 was declared previous at backprop-rodinia-3.1.sm_30.ptx:28 skipping new declaration
GPGPU-Sim PTX: Warning %r7 was declared previous at backprop-rodinia-3.1.sm_30.ptx:28 skipping new declaration
GPGPU-Sim PTX: Warning %r8 was declared previous at backprop-rodinia-3.1.sm_30.ptx:28 skipping new declaration
GPGPU-Sim PTX: Warning %r9 was declared previous at backprop-rodinia-3.1.sm_30.ptx:28 skipping new declaration
GPGPU-Sim PTX: Warning %r10 was declared previous at backprop-rodinia-3.1.sm_30.ptx:28 skipping new declaration
GPGPU-Sim PTX: Warning %r11 was declared previous at backprop-rodinia-3.1.sm_30.ptx:28 skipping new declaration
GPGPU-Sim PTX: Warning %r12 was declared previous at backprop-rodinia-3.1.sm_30.ptx:28 skipping new declaration
GPGPU-Sim PTX: Warning %r13 was declared previous at backprop-rodinia-3.1.sm_30.ptx:28 skipping new declaration
GPGPU-Sim PTX: Warning %r14 was declared previous at backprop-rodinia-3.1.sm_30.ptx:28 skipping new declaration
GPGPU-Sim PTX: Warning %r15 was declared previous at backprop-rodinia-3.1.sm_30.ptx:28 skipping new declaration
GPGPU-Sim PTX: Warning %r16 was declared previous at backprop-rodinia-3.1.sm_30.ptx:28 skipping new declaration
GPGPU-Sim PTX: Warning %r17 was declared previous at backprop-rodinia-3.1.sm_30.ptx:28 skipping new declaration
GPGPU-Sim PTX: Warning %r18 was declared previous at backprop-rodinia-3.1.sm_30.ptx:28 skipping new declaration
GPGPU-Sim PTX: Warning %r19 was declared previous at backprop-rodinia-3.1.sm_30.ptx:28 skipping new declaration
GPGPU-Sim PTX: Warning %r20 was declared previous at backprop-rodinia-3.1.sm_30.ptx:28 skipping new declaration
GPGPU-Sim PTX: Warning %r21 was declared previous at backprop-rodinia-3.1.sm_30.ptx:28 skipping new declaration
GPGPU-Sim PTX: Warning %r22 was declared previous at backprop-rodinia-3.1.sm_30.ptx:28 skipping new declaration
GPGPU-Sim PTX: Warning %r23 was declared previous at backprop-rodinia-3.1.sm_30.ptx:28 skipping new declaration
GPGPU-Sim PTX: Warning %r24 was declared previous at backprop-rodinia-3.1.sm_30.ptx:28 skipping new declaration
GPGPU-Sim PTX: Warning %r25 was declared previous at backprop-rodinia-3.1.sm_30.ptx:28 skipping new declaration
GPGPU-Sim PTX: Warning %r26 was declared previous at backprop-rodinia-3.1.sm_30.ptx:28 skipping new declaration
GPGPU-Sim PTX: Warning %r27 was declared previous at backprop-rodinia-3.1.sm_30.ptx:28 skipping new declaration
GPGPU-Sim PTX: Warning %r28 was declared previous at backprop-rodinia-3.1.sm_30.ptx:28 skipping new declaration
GPGPU-Sim PTX: Warning %r29 was declared previous at backprop-rodinia-3.1.sm_30.ptx:28 skipping new declaration
GPGPU-Sim PTX: Warning %r30 was declared previous at backprop-rodinia-3.1.sm_30.ptx:28 skipping new declaration
GPGPU-Sim PTX: Warning %r31 was declared previous at backprop-rodinia-3.1.sm_30.ptx:28 skipping new declaration
GPGPU-Sim PTX: Warning %r32 was declared previous at backprop-rodinia-3.1.sm_30.ptx:28 skipping new declaration
GPGPU-Sim PTX: Warning %r33 was declared previous at backprop-rodinia-3.1.sm_30.ptx:28 skipping new declaration
GPGPU-Sim PTX: Warning %r34 was declared previous at backprop-rodinia-3.1.sm_30.ptx:28 skipping new declaration
GPGPU-Sim PTX: Warning %r35 was declared previous at backprop-rodinia-3.1.sm_30.ptx:28 skipping new declaration
GPGPU-Sim PTX: Warning %r36 was declared previous at backprop-rodinia-3.1.sm_30.ptx:28 skipping new declaration
GPGPU-Sim PTX: Warning %rd0 was declared previous at backprop-rodinia-3.1.sm_30.ptx:29 skipping new declaration
GPGPU-Sim PTX: Warning %rd1 was declared previous at backprop-rodinia-3.1.sm_30.ptx:29 skipping new declaration
GPGPU-Sim PTX: Warning %rd2 was declared previous at backprop-rodinia-3.1.sm_30.ptx:29 skipping new declaration
GPGPU-Sim PTX: Warning %rd3 was declared previous at backprop-rodinia-3.1.sm_30.ptx:29 skipping new declaration
GPGPU-Sim PTX: Warning %rd4 was declared previous at backprop-rodinia-3.1.sm_30.ptx:29 skipping new declaration
GPGPU-Sim PTX: Warning %rd5 was declared previous at backprop-rodinia-3.1.sm_30.ptx:29 skipping new declaration
GPGPU-Sim PTX: Warning %rd6 was declared previous at backprop-rodinia-3.1.sm_30.ptx:29 skipping new declaration
GPGPU-Sim PTX: Warning %rd7 was declared previous at backprop-rodinia-3.1.sm_30.ptx:29 skipping new declaration
GPGPU-Sim PTX: Warning %rd8 was declared previous at backprop-rodinia-3.1.sm_30.ptx:29 skipping new declaration
GPGPU-Sim PTX: Warning %rd9 was declared previous at backprop-rodinia-3.1.sm_30.ptx:29 skipping new declaration
GPGPU-Sim PTX: Warning %rd10 was declared previous at backprop-rodinia-3.1.sm_30.ptx:29 skipping new declaration
GPGPU-Sim PTX: Warning %rd11 was declared previous at backprop-rodinia-3.1.sm_30.ptx:29 skipping new declaration
GPGPU-Sim PTX: Warning %rd12 was declared previous at backprop-rodinia-3.1.sm_30.ptx:29 skipping new declaration
GPGPU-Sim PTX: Warning _ZZ22bpnn_layerforward_CUDAPfS_S_S_iiE10input_node was declared previous at backprop-rodinia-3.1.sm_30.ptx:31 skipping new declaration
GPGPU-Sim PTX: Warning _ZZ22bpnn_layerforward_CUDAPfS_S_S_iiE13weight_matrix was declared previous at backprop-rodinia-3.1.sm_30.ptx:33 skipping new declaration
GPGPU-Sim PTX: instruction assembly for function '_Z22bpnn_layerforward_CUDAPfS_S_S_ii'...   done.
GPGPU-Sim PTX: Warning %p0 was declared previous at backprop-rodinia-3.1.sm_30.ptx:145 skipping new declaration
GPGPU-Sim PTX: Warning %p1 was declared previous at backprop-rodinia-3.1.sm_30.ptx:145 skipping new declaration
GPGPU-Sim PTX: Warning %f0 was declared previous at backprop-rodinia-3.1.sm_30.ptx:146 skipping new declaration
GPGPU-Sim PTX: Warning %f1 was declared previous at backprop-rodinia-3.1.sm_30.ptx:146 skipping new declaration
GPGPU-Sim PTX: Warning %f2 was declared previous at backprop-rodinia-3.1.sm_30.ptx:146 skipping new declaration
GPGPU-Sim PTX: Warning %f3 was declared previous at backprop-rodinia-3.1.sm_30.ptx:146 skipping new declaration
GPGPU-Sim PTX: Warning %f4 was declared previous at backprop-rodinia-3.1.sm_30.ptx:146 skipping new declaration
GPGPU-Sim PTX: Warning %f5 was declared previous at backprop-rodinia-3.1.sm_30.ptx:146 skipping new declaration
GPGPU-Sim PTX: Warning %f6 was declared previous at backprop-rodinia-3.1.sm_30.ptx:146 skipping new declaration
GPGPU-Sim PTX: Warning %f7 was declared previous at backprop-rodinia-3.1.sm_30.ptx:146 skipping new declaration
GPGPU-Sim PTX: Warning %f8 was declared previous at backprop-rodinia-3.1.sm_30.ptx:146 skipping new declaration
GPGPU-Sim PTX: Warning %f9 was declared previous at backprop-rodinia-3.1.sm_30.ptx:146 skipping new declaration
GPGPU-Sim PTX: Warning %f10 was declared previous at backprop-rodinia-3.1.sm_30.ptx:146 skipping new declaration
GPGPU-Sim PTX: Warning %f11 was declared previous at backprop-rodinia-3.1.sm_30.ptx:146 skipping new declaration
GPGPU-Sim PTX: Warning %f12 was declared previous at backprop-rodinia-3.1.sm_30.ptx:146 skipping new declaration
GPGPU-Sim PTX: Warning %f13 was declared previous at backprop-rodinia-3.1.sm_30.ptx:146 skipping new declaration
GPGPU-Sim PTX: Warning %f14 was declared previous at backprop-rodinia-3.1.sm_30.ptx:146 skipping new declaration
GPGPU-Sim PTX: Warning %f15 was declared previous at backprop-rodinia-3.1.sm_30.ptx:146 skipping new declaration
GPGPU-Sim PTX: Warning %f16 was declared previous at backprop-rodinia-3.1.sm_30.ptx:146 skipping new declaration
GPGPU-Sim PTX: Warning %r0 was declared previous at backprop-rodinia-3.1.sm_30.ptx:147 skipping new declaration
GPGPU-Sim PTX: Warning %r1 was declared previous at backprop-rodinia-3.1.sm_30.ptx:147 skipping new declaration
GPGPU-Sim PTX: Warning %r2 was declared previous at backprop-rodinia-3.1.sm_30.ptx:147 skipping new declaration
GPGPU-Sim PTX: Warning %r3 was declared previous at backprop-rodinia-3.1.sm_30.ptx:147 skipping new declaration
GPGPU-Sim PTX: Warning %r4 was declared previous at backprop-rodinia-3.1.sm_30.ptx:147 skipping new declaration
GPGPU-Sim PTX: Warning %r5 was declared previous at backprop-rodinia-3.1.sm_30.ptx:147 skipping new declaration
GPGPU-Sim PTX: Warning %r6 was declared previous at backprop-rodinia-3.1.sm_30.ptx:147 skipping new declaration
GPGPU-Sim PTX: Warning %r7 was declared previous at backprop-rodinia-3.1.sm_30.ptx:147 skipping new declaration
GPGPU-Sim PTX: Warning %r8 was declared previous at backprop-rodinia-3.1.sm_30.ptx:147 skipping new declaration
GPGPU-Sim PTX: Warning %r9 was declared previous at backprop-rodinia-3.1.sm_30.ptx:147 skipping new declaration
GPGPU-Sim PTX: Warning %r10 was declared previous at backprop-rodinia-3.1.sm_30.ptx:147 skipping new declaration
GPGPU-Sim PTX: Warning %r11 was declared previous at backprop-rodinia-3.1.sm_30.ptx:147 skipping new declaration
GPGPU-Sim PTX: Warning %fd0 was declared previous at backprop-rodinia-3.1.sm_30.ptx:148 skipping new declaration
GPGPU-Sim PTX: Warning %fd1 was declared previous at backprop-rodinia-3.1.sm_30.ptx:148 skipping new declaration
GPGPU-Sim PTX: Warning %fd2 was declared previous at backprop-rodinia-3.1.sm_30.ptx:148 skipping new declaration
GPGPU-Sim PTX: Warning %fd3 was declared previous at backprop-rodinia-3.1.sm_30.ptx:148 skipping new declaration
GPGPU-Sim PTX: Warning %fd4 was declared previous at backprop-rodinia-3.1.sm_30.ptx:148 skipping new declaration
GPGPU-Sim PTX: Warning %fd5 was declared previous at backprop-rodinia-3.1.sm_30.ptx:148 skipping new declaration
GPGPU-Sim PTX: Warning %fd6 was declared previous at backprop-rodinia-3.1.sm_30.ptx:148 skipping new declaration
GPGPU-Sim PTX: Warning %fd7 was declared previous at backprop-rodinia-3.1.sm_30.ptx:148 skipping new declaration
GPGPU-Sim PTX: Warning %fd8 was declared previous at backprop-rodinia-3.1.sm_30.ptx:148 skipping new declaration
GPGPU-Sim PTX: Warning %fd9 was declared previous at backprop-rodinia-3.1.sm_30.ptx:148 skipping new declaration
GPGPU-Sim PTX: Warning %fd10 was declared previous at backprop-rodinia-3.1.sm_30.ptx:148 skipping new declaration
GPGPU-Sim PTX: Warning %fd11 was declared previous at backprop-rodinia-3.1.sm_30.ptx:148 skipping new declaration
GPGPU-Sim PTX: Warning %fd12 was declared previous at backprop-rodinia-3.1.sm_30.ptx:148 skipping new declaration
GPGPU-Sim PTX: Warning %fd13 was declared previous at backprop-rodinia-3.1.sm_30.ptx:148 skipping new declaration
GPGPU-Sim PTX: Warning %fd14 was declared previous at backprop-rodinia-3.1.sm_30.ptx:148 skipping new declaration
GPGPU-Sim PTX: Warning %fd15 was declared previous at backprop-rodinia-3.1.sm_30.ptx:148 skipping new declaration
GPGPU-Sim PTX: Warning %fd16 was declared previous at backprop-rodinia-3.1.sm_30.ptx:148 skipping new declaration
GPGPU-Sim PTX: Warning %fd17 was declared previous at backprop-rodinia-3.1.sm_30.ptx:148 skipping new declaration
GPGPU-Sim PTX: Warning %fd18 was declared previous at backprop-rodinia-3.1.sm_30.ptx:148 skipping new declaration
GPGPU-Sim PTX: Warning %fd19 was declared previous at backprop-rodinia-3.1.sm_30.ptx:148 skipping new declaration
GPGPU-Sim PTX: Warning %fd20 was declared previous at backprop-rodinia-3.1.sm_30.ptx:148 skipping new declaration
GPGPU-Sim PTX: Warning %fd21 was declared previous at backprop-rodinia-3.1.sm_30.ptx:148 skipping new declaration
GPGPU-Sim PTX: Warning %fd22 was declared previous at backprop-rodinia-3.1.sm_30.ptx:148 skipping new declaration
GPGPU-Sim PTX: Warning %fd23 was declared previous at backprop-rodinia-3.1.sm_30.ptx:148 skipping new declaration
GPGPU-Sim PTX: Warning %fd24 was declared previous at backprop-rodinia-3.1.sm_30.ptx:148 skipping new declaration
GPGPU-Sim PTX: Warning %rd0 was declared previous at backprop-rodinia-3.1.sm_30.ptx:149 skipping new declaration
GPGPU-Sim PTX: Warning %rd1 was declared previous at backprop-rodinia-3.1.sm_30.ptx:149 skipping new declaration
GPGPU-Sim PTX: Warning %rd2 was declared previous at backprop-rodinia-3.1.sm_30.ptx:149 skipping new declaration
GPGPU-Sim PTX: Warning %rd3 was declared previous at backprop-rodinia-3.1.sm_30.ptx:149 skipping new declaration
GPGPU-Sim PTX: Warning %rd4 was declared previous at backprop-rodinia-3.1.sm_30.ptx:149 skipping new declaration
GPGPU-Sim PTX: Warning %rd5 was declared previous at backprop-rodinia-3.1.sm_30.ptx:149 skipping new declaration
GPGPU-Sim PTX: Warning %rd6 was declared previous at backprop-rodinia-3.1.sm_30.ptx:149 skipping new declaration
GPGPU-Sim PTX: Warning %rd7 was declared previous at backprop-rodinia-3.1.sm_30.ptx:149 skipping new declaration
GPGPU-Sim PTX: Warning %rd8 was declared previous at backprop-rodinia-3.1.sm_30.ptx:149 skipping new declaration
GPGPU-Sim PTX: Warning %rd9 was declared previous at backprop-rodinia-3.1.sm_30.ptx:149 skipping new declaration
GPGPU-Sim PTX: Warning %rd10 was declared previous at backprop-rodinia-3.1.sm_30.ptx:149 skipping new declaration
GPGPU-Sim PTX: Warning %rd11 was declared previous at backprop-rodinia-3.1.sm_30.ptx:149 skipping new declaration
GPGPU-Sim PTX: Warning %rd12 was declared previous at backprop-rodinia-3.1.sm_30.ptx:149 skipping new declaration
GPGPU-Sim PTX: Warning %rd13 was declared previous at backprop-rodinia-3.1.sm_30.ptx:149 skipping new declaration
GPGPU-Sim PTX: Warning %rd14 was declared previous at backprop-rodinia-3.1.sm_30.ptx:149 skipping new declaration
GPGPU-Sim PTX: Warning %rd15 was declared previous at backprop-rodinia-3.1.sm_30.ptx:149 skipping new declaration
GPGPU-Sim PTX: Warning %rd16 was declared previous at backprop-rodinia-3.1.sm_30.ptx:149 skipping new declaration
GPGPU-Sim PTX: Warning %rd17 was declared previous at backprop-rodinia-3.1.sm_30.ptx:149 skipping new declaration
GPGPU-Sim PTX: Warning %rd18 was declared previous at backprop-rodinia-3.1.sm_30.ptx:149 skipping new declaration
GPGPU-Sim PTX: instruction assembly for function '_Z24bpnn_adjust_weights_cudaPfiS_iS_S_'...   done.
GPGPU-Sim PTX: finished parsing EMBEDDED .ptx file backprop-rodinia-3.3.sm_50.ptx
GPGPU-Sim PTX: Parsing backprop-rodinia-3.4.sm_60.ptx
GPGPU-Sim PTX: Warning %p0 was declared previous at backprop-rodinia-3.1.sm_30.ptx:26 skipping new declaration
GPGPU-Sim PTX: Warning %p1 was declared previous at backprop-rodinia-3.1.sm_30.ptx:26 skipping new declaration
GPGPU-Sim PTX: Warning %p2 was declared previous at backprop-rodinia-3.1.sm_30.ptx:26 skipping new declaration
GPGPU-Sim PTX: Warning %p3 was declared previous at backprop-rodinia-3.1.sm_30.ptx:26 skipping new declaration
GPGPU-Sim PTX: Warning %p4 was declared previous at backprop-rodinia-3.1.sm_30.ptx:26 skipping new declaration
GPGPU-Sim PTX: Warning %p5 was declared previous at backprop-rodinia-3.1.sm_30.ptx:26 skipping new declaration
GPGPU-Sim PTX: Warning %f0 was declared previous at backprop-rodinia-3.1.sm_30.ptx:27 skipping new declaration
GPGPU-Sim PTX: Warning %f1 was declared previous at backprop-rodinia-3.1.sm_30.ptx:27 skipping new declaration
GPGPU-Sim PTX: Warning %f2 was declared previous at backprop-rodinia-3.1.sm_30.ptx:27 skipping new declaration
GPGPU-Sim PTX: Warning %f3 was declared previous at backprop-rodinia-3.1.sm_30.ptx:27 skipping new declaration
GPGPU-Sim PTX: Warning %f4 was declared previous at backprop-rodinia-3.1.sm_30.ptx:27 skipping new declaration
GPGPU-Sim PTX: Warning %f5 was declared previous at backprop-rodinia-3.1.sm_30.ptx:27 skipping new declaration
GPGPU-Sim PTX: Warning %f6 was declared previous at backprop-rodinia-3.1.sm_30.ptx:27 skipping new declaration
GPGPU-Sim PTX: Warning %f7 was declared previous at backprop-rodinia-3.1.sm_30.ptx:27 skipping new declaration
GPGPU-Sim PTX: Warning %f8 was declared previous at backprop-rodinia-3.1.sm_30.ptx:27 skipping new declaration
GPGPU-Sim PTX: Warning %f9 was declared previous at backprop-rodinia-3.1.sm_30.ptx:27 skipping new declaration
GPGPU-Sim PTX: Warning %f10 was declared previous at backprop-rodinia-3.1.sm_30.ptx:27 skipping new declaration
GPGPU-Sim PTX: Warning %f11 was declared previous at backprop-rodinia-3.1.sm_30.ptx:27 skipping new declaration
GPGPU-Sim PTX: Warning %f12 was declared previous at backprop-rodinia-3.1.sm_30.ptx:27 skipping new declaration
GPGPU-Sim PTX: Warning %f13 was declared previous at backprop-rodinia-3.1.sm_30.ptx:27 skipping new declaration
GPGPU-Sim PTX: Warning %f14 was declared previous at backprop-rodinia-3.1.sm_30.ptx:27 skipping new declaration
GPGPU-Sim PTX: Warning %f15 was declared previous at backprop-rodinia-3.1.sm_30.ptx:27 skipping new declaration
GPGPU-Sim PTX: Warning %f16 was declared previous at backprop-rodinia-3.1.sm_30.ptx:27 skipping new declaration
GPGPU-Sim PTX: Warning %f17 was declared previous at backprop-rodinia-3.1.sm_30.ptx:27 skipping new declaration
GPGPU-Sim PTX: Warning %f18 was declared previous at backprop-rodinia-3.1.sm_30.ptx:27 skipping new declaration
GPGPU-Sim PTX: Warning %f19 was declared previous at backprop-rodinia-3.1.sm_30.ptx:27 skipping new declaration
GPGPU-Sim PTX: Warning %f20 was declared previous at backprop-rodinia-3.1.sm_30.ptx:27 skipping new declaration
GPGPU-Sim PTX: Warning %r0 was declared previous at backprop-rodinia-3.1.sm_30.ptx:28 skipping new declaration
GPGPU-Sim PTX: Warning %r1 was declared previous at backprop-rodinia-3.1.sm_30.ptx:28 skipping new declaration
GPGPU-Sim PTX: Warning %r2 was declared previous at backprop-rodinia-3.1.sm_30.ptx:28 skipping new declaration
GPGPU-Sim PTX: Warning %r3 was declared previous at backprop-rodinia-3.1.sm_30.ptx:28 skipping new declaration
GPGPU-Sim PTX: Warning %r4 was declared previous at backprop-rodinia-3.1.sm_30.ptx:28 skipping new declaration
GPGPU-Sim PTX: Warning %r5 was declared previous at backprop-rodinia-3.1.sm_30.ptx:28 skipping new declaration
GPGPU-Sim PTX: Warning %r6 was declared previous at backprop-rodinia-3.1.sm_30.ptx:28 skipping new declaration
GPGPU-Sim PTX: Warning %r7 was declared previous at backprop-rodinia-3.1.sm_30.ptx:28 skipping new declaration
GPGPU-Sim PTX: Warning %r8 was declared previous at backprop-rodinia-3.1.sm_30.ptx:28 skipping new declaration
GPGPU-Sim PTX: Warning %r9 was declared previous at backprop-rodinia-3.1.sm_30.ptx:28 skipping new declaration
GPGPU-Sim PTX: Warning %r10 was declared previous at backprop-rodinia-3.1.sm_30.ptx:28 skipping new declaration
GPGPU-Sim PTX: Warning %r11 was declared previous at backprop-rodinia-3.1.sm_30.ptx:28 skipping new declaration
GPGPU-Sim PTX: Warning %r12 was declared previous at backprop-rodinia-3.1.sm_30.ptx:28 skipping new declaration
GPGPU-Sim PTX: Warning %r13 was declared previous at backprop-rodinia-3.1.sm_30.ptx:28 skipping new declaration
GPGPU-Sim PTX: Warning %r14 was declared previous at backprop-rodinia-3.1.sm_30.ptx:28 skipping new declaration
GPGPU-Sim PTX: Warning %r15 was declared previous at backprop-rodinia-3.1.sm_30.ptx:28 skipping new declaration
GPGPU-Sim PTX: Warning %r16 was declared previous at backprop-rodinia-3.1.sm_30.ptx:28 skipping new declaration
GPGPU-Sim PTX: Warning %r17 was declared previous at backprop-rodinia-3.1.sm_30.ptx:28 skipping new declaration
GPGPU-Sim PTX: Warning %r18 was declared previous at backprop-rodinia-3.1.sm_30.ptx:28 skipping new declaration
GPGPU-Sim PTX: Warning %r19 was declared previous at backprop-rodinia-3.1.sm_30.ptx:28 skipping new declaration
GPGPU-Sim PTX: Warning %r20 was declared previous at backprop-rodinia-3.1.sm_30.ptx:28 skipping new declaration
GPGPU-Sim PTX: Warning %r21 was declared previous at backprop-rodinia-3.1.sm_30.ptx:28 skipping new declaration
GPGPU-Sim PTX: Warning %r22 was declared previous at backprop-rodinia-3.1.sm_30.ptx:28 skipping new declaration
GPGPU-Sim PTX: Warning %r23 was declared previous at backprop-rodinia-3.1.sm_30.ptx:28 skipping new declaration
GPGPU-Sim PTX: Warning %r24 was declared previous at backprop-rodinia-3.1.sm_30.ptx:28 skipping new declaration
GPGPU-Sim PTX: Warning %r25 was declared previous at backprop-rodinia-3.1.sm_30.ptx:28 skipping new declaration
GPGPU-Sim PTX: Warning %r26 was declared previous at backprop-rodinia-3.1.sm_30.ptx:28 skipping new declaration
GPGPU-Sim PTX: Warning %r27 was declared previous at backprop-rodinia-3.1.sm_30.ptx:28 skipping new declaration
GPGPU-Sim PTX: Warning %r28 was declared previous at backprop-rodinia-3.1.sm_30.ptx:28 skipping new declaration
GPGPU-Sim PTX: Warning %r29 was declared previous at backprop-rodinia-3.1.sm_30.ptx:28 skipping new declaration
GPGPU-Sim PTX: Warning %r30 was declared previous at backprop-rodinia-3.1.sm_30.ptx:28 skipping new declaration
GPGPU-Sim PTX: Warning %r31 was declared previous at backprop-rodinia-3.1.sm_30.ptx:28 skipping new declaration
GPGPU-Sim PTX: Warning %r32 was declared previous at backprop-rodinia-3.1.sm_30.ptx:28 skipping new declaration
GPGPU-Sim PTX: Warning %r33 was declared previous at backprop-rodinia-3.1.sm_30.ptx:28 skipping new declaration
GPGPU-Sim PTX: Warning %r34 was declared previous at backprop-rodinia-3.1.sm_30.ptx:28 skipping new declaration
GPGPU-Sim PTX: Warning %r35 was declared previous at backprop-rodinia-3.1.sm_30.ptx:28 skipping new declaration
GPGPU-Sim PTX: Warning %r36 was declared previous at backprop-rodinia-3.1.sm_30.ptx:28 skipping new declaration
GPGPU-Sim PTX: Warning %rd0 was declared previous at backprop-rodinia-3.1.sm_30.ptx:29 skipping new declaration
GPGPU-Sim PTX: Warning %rd1 was declared previous at backprop-rodinia-3.1.sm_30.ptx:29 skipping new declaration
GPGPU-Sim PTX: Warning %rd2 was declared previous at backprop-rodinia-3.1.sm_30.ptx:29 skipping new declaration
GPGPU-Sim PTX: Warning %rd3 was declared previous at backprop-rodinia-3.1.sm_30.ptx:29 skipping new declaration
GPGPU-Sim PTX: Warning %rd4 was declared previous at backprop-rodinia-3.1.sm_30.ptx:29 skipping new declaration
GPGPU-Sim PTX: Warning %rd5 was declared previous at backprop-rodinia-3.1.sm_30.ptx:29 skipping new declaration
GPGPU-Sim PTX: Warning %rd6 was declared previous at backprop-rodinia-3.1.sm_30.ptx:29 skipping new declaration
GPGPU-Sim PTX: Warning %rd7 was declared previous at backprop-rodinia-3.1.sm_30.ptx:29 skipping new declaration
GPGPU-Sim PTX: Warning %rd8 was declared previous at backprop-rodinia-3.1.sm_30.ptx:29 skipping new declaration
GPGPU-Sim PTX: Warning %rd9 was declared previous at backprop-rodinia-3.1.sm_30.ptx:29 skipping new declaration
GPGPU-Sim PTX: Warning %rd10 was declared previous at backprop-rodinia-3.1.sm_30.ptx:29 skipping new declaration
GPGPU-Sim PTX: Warning %rd11 was declared previous at backprop-rodinia-3.1.sm_30.ptx:29 skipping new declaration
GPGPU-Sim PTX: Warning %rd12 was declared previous at backprop-rodinia-3.1.sm_30.ptx:29 skipping new declaration
GPGPU-Sim PTX: Warning _ZZ22bpnn_layerforward_CUDAPfS_S_S_iiE10input_node was declared previous at backprop-rodinia-3.1.sm_30.ptx:31 skipping new declaration
GPGPU-Sim PTX: Warning _ZZ22bpnn_layerforward_CUDAPfS_S_S_iiE13weight_matrix was declared previous at backprop-rodinia-3.1.sm_30.ptx:33 skipping new declaration
GPGPU-Sim PTX: instruction assembly for function '_Z22bpnn_layerforward_CUDAPfS_S_S_ii'...   done.
GPGPU-Sim PTX: Warning %p0 was declared previous at backprop-rodinia-3.1.sm_30.ptx:145 skipping new declaration
GPGPU-Sim PTX: Warning %p1 was declared previous at backprop-rodinia-3.1.sm_30.ptx:145 skipping new declaration
GPGPU-Sim PTX: Warning %f0 was declared previous at backprop-rodinia-3.1.sm_30.ptx:146 skipping new declaration
GPGPU-Sim PTX: Warning %f1 was declared previous at backprop-rodinia-3.1.sm_30.ptx:146 skipping new declaration
GPGPU-Sim PTX: Warning %f2 was declared previous at backprop-rodinia-3.1.sm_30.ptx:146 skipping new declaration
GPGPU-Sim PTX: Warning %f3 was declared previous at backprop-rodinia-3.1.sm_30.ptx:146 skipping new declaration
GPGPU-Sim PTX: Warning %f4 was declared previous at backprop-rodinia-3.1.sm_30.ptx:146 skipping new declaration
GPGPU-Sim PTX: Warning %f5 was declared previous at backprop-rodinia-3.1.sm_30.ptx:146 skipping new declaration
GPGPU-Sim PTX: Warning %f6 was declared previous at backprop-rodinia-3.1.sm_30.ptx:146 skipping new declaration
GPGPU-Sim PTX: Warning %f7 was declared previous at backprop-rodinia-3.1.sm_30.ptx:146 skipping new declaration
GPGPU-Sim PTX: Warning %f8 was declared previous at backprop-rodinia-3.1.sm_30.ptx:146 skipping new declaration
GPGPU-Sim PTX: Warning %f9 was declared previous at backprop-rodinia-3.1.sm_30.ptx:146 skipping new declaration
GPGPU-Sim PTX: Warning %f10 was declared previous at backprop-rodinia-3.1.sm_30.ptx:146 skipping new declaration
GPGPU-Sim PTX: Warning %f11 was declared previous at backprop-rodinia-3.1.sm_30.ptx:146 skipping new declaration
GPGPU-Sim PTX: Warning %f12 was declared previous at backprop-rodinia-3.1.sm_30.ptx:146 skipping new declaration
GPGPU-Sim PTX: Warning %f13 was declared previous at backprop-rodinia-3.1.sm_30.ptx:146 skipping new declaration
GPGPU-Sim PTX: Warning %f14 was declared previous at backprop-rodinia-3.1.sm_30.ptx:146 skipping new declaration
GPGPU-Sim PTX: Warning %f15 was declared previous at backprop-rodinia-3.1.sm_30.ptx:146 skipping new declaration
GPGPU-Sim PTX: Warning %f16 was declared previous at backprop-rodinia-3.1.sm_30.ptx:146 skipping new declaration
GPGPU-Sim PTX: Warning %r0 was declared previous at backprop-rodinia-3.1.sm_30.ptx:147 skipping new declaration
GPGPU-Sim PTX: Warning %r1 was declared previous at backprop-rodinia-3.1.sm_30.ptx:147 skipping new declaration
GPGPU-Sim PTX: Warning %r2 was declared previous at backprop-rodinia-3.1.sm_30.ptx:147 skipping new declaration
GPGPU-Sim PTX: Warning %r3 was declared previous at backprop-rodinia-3.1.sm_30.ptx:147 skipping new declaration
GPGPU-Sim PTX: Warning %r4 was declared previous at backprop-rodinia-3.1.sm_30.ptx:147 skipping new declaration
GPGPU-Sim PTX: Warning %r5 was declared previous at backprop-rodinia-3.1.sm_30.ptx:147 skipping new declaration
GPGPU-Sim PTX: Warning %r6 was declared previous at backprop-rodinia-3.1.sm_30.ptx:147 skipping new declaration
GPGPU-Sim PTX: Warning %r7 was declared previous at backprop-rodinia-3.1.sm_30.ptx:147 skipping new declaration
GPGPU-Sim PTX: Warning %r8 was declared previous at backprop-rodinia-3.1.sm_30.ptx:147 skipping new declaration
GPGPU-Sim PTX: Warning %r9 was declared previous at backprop-rodinia-3.1.sm_30.ptx:147 skipping new declaration
GPGPU-Sim PTX: Warning %r10 was declared previous at backprop-rodinia-3.1.sm_30.ptx:147 skipping new declaration
GPGPU-Sim PTX: Warning %r11 was declared previous at backprop-rodinia-3.1.sm_30.ptx:147 skipping new declaration
GPGPU-Sim PTX: Warning %fd0 was declared previous at backprop-rodinia-3.1.sm_30.ptx:148 skipping new declaration
GPGPU-Sim PTX: Warning %fd1 was declared previous at backprop-rodinia-3.1.sm_30.ptx:148 skipping new declaration
GPGPU-Sim PTX: Warning %fd2 was declared previous at backprop-rodinia-3.1.sm_30.ptx:148 skipping new declaration
GPGPU-Sim PTX: Warning %fd3 was declared previous at backprop-rodinia-3.1.sm_30.ptx:148 skipping new declaration
GPGPU-Sim PTX: Warning %fd4 was declared previous at backprop-rodinia-3.1.sm_30.ptx:148 skipping new declaration
GPGPU-Sim PTX: Warning %fd5 was declared previous at backprop-rodinia-3.1.sm_30.ptx:148 skipping new declaration
GPGPU-Sim PTX: Warning %fd6 was declared previous at backprop-rodinia-3.1.sm_30.ptx:148 skipping new declaration
GPGPU-Sim PTX: Warning %fd7 was declared previous at backprop-rodinia-3.1.sm_30.ptx:148 skipping new declaration
GPGPU-Sim PTX: Warning %fd8 was declared previous at backprop-rodinia-3.1.sm_30.ptx:148 skipping new declaration
GPGPU-Sim PTX: Warning %fd9 was declared previous at backprop-rodinia-3.1.sm_30.ptx:148 skipping new declaration
GPGPU-Sim PTX: Warning %fd10 was declared previous at backprop-rodinia-3.1.sm_30.ptx:148 skipping new declaration
GPGPU-Sim PTX: Warning %fd11 was declared previous at backprop-rodinia-3.1.sm_30.ptx:148 skipping new declaration
GPGPU-Sim PTX: Warning %fd12 was declared previous at backprop-rodinia-3.1.sm_30.ptx:148 skipping new declaration
GPGPU-Sim PTX: Warning %fd13 was declared previous at backprop-rodinia-3.1.sm_30.ptx:148 skipping new declaration
GPGPU-Sim PTX: Warning %fd14 was declared previous at backprop-rodinia-3.1.sm_30.ptx:148 skipping new declaration
GPGPU-Sim PTX: Warning %fd15 was declared previous at backprop-rodinia-3.1.sm_30.ptx:148 skipping new declaration
GPGPU-Sim PTX: Warning %fd16 was declared previous at backprop-rodinia-3.1.sm_30.ptx:148 skipping new declaration
GPGPU-Sim PTX: Warning %fd17 was declared previous at backprop-rodinia-3.1.sm_30.ptx:148 skipping new declaration
GPGPU-Sim PTX: Warning %fd18 was declared previous at backprop-rodinia-3.1.sm_30.ptx:148 skipping new declaration
GPGPU-Sim PTX: Warning %fd19 was declared previous at backprop-rodinia-3.1.sm_30.ptx:148 skipping new declaration
GPGPU-Sim PTX: Warning %fd20 was declared previous at backprop-rodinia-3.1.sm_30.ptx:148 skipping new declaration
GPGPU-Sim PTX: Warning %fd21 was declared previous at backprop-rodinia-3.1.sm_30.ptx:148 skipping new declaration
GPGPU-Sim PTX: Warning %fd22 was declared previous at backprop-rodinia-3.1.sm_30.ptx:148 skipping new declaration
GPGPU-Sim PTX: Warning %fd23 was declared previous at backprop-rodinia-3.1.sm_30.ptx:148 skipping new declaration
GPGPU-Sim PTX: Warning %fd24 was declared previous at backprop-rodinia-3.1.sm_30.ptx:148 skipping new declaration
GPGPU-Sim PTX: Warning %rd0 was declared previous at backprop-rodinia-3.1.sm_30.ptx:149 skipping new declaration
GPGPU-Sim PTX: Warning %rd1 was declared previous at backprop-rodinia-3.1.sm_30.ptx:149 skipping new declaration
GPGPU-Sim PTX: Warning %rd2 was declared previous at backprop-rodinia-3.1.sm_30.ptx:149 skipping new declaration
GPGPU-Sim PTX: Warning %rd3 was declared previous at backprop-rodinia-3.1.sm_30.ptx:149 skipping new declaration
GPGPU-Sim PTX: Warning %rd4 was declared previous at backprop-rodinia-3.1.sm_30.ptx:149 skipping new declaration
GPGPU-Sim PTX: Warning %rd5 was declared previous at backprop-rodinia-3.1.sm_30.ptx:149 skipping new declaration
GPGPU-Sim PTX: Warning %rd6 was declared previous at backprop-rodinia-3.1.sm_30.ptx:149 skipping new declaration
GPGPU-Sim PTX: Warning %rd7 was declared previous at backprop-rodinia-3.1.sm_30.ptx:149 skipping new declaration
GPGPU-Sim PTX: Warning %rd8 was declared previous at backprop-rodinia-3.1.sm_30.ptx:149 skipping new declaration
GPGPU-Sim PTX: Warning %rd9 was declared previous at backprop-rodinia-3.1.sm_30.ptx:149 skipping new declaration
GPGPU-Sim PTX: Warning %rd10 was declared previous at backprop-rodinia-3.1.sm_30.ptx:149 skipping new declaration
GPGPU-Sim PTX: Warning %rd11 was declared previous at backprop-rodinia-3.1.sm_30.ptx:149 skipping new declaration
GPGPU-Sim PTX: Warning %rd12 was declared previous at backprop-rodinia-3.1.sm_30.ptx:149 skipping new declaration
GPGPU-Sim PTX: Warning %rd13 was declared previous at backprop-rodinia-3.1.sm_30.ptx:149 skipping new declaration
GPGPU-Sim PTX: Warning %rd14 was declared previous at backprop-rodinia-3.1.sm_30.ptx:149 skipping new declaration
GPGPU-Sim PTX: Warning %rd15 was declared previous at backprop-rodinia-3.1.sm_30.ptx:149 skipping new declaration
GPGPU-Sim PTX: Warning %rd16 was declared previous at backprop-rodinia-3.1.sm_30.ptx:149 skipping new declaration
GPGPU-Sim PTX: Warning %rd17 was declared previous at backprop-rodinia-3.1.sm_30.ptx:149 skipping new declaration
GPGPU-Sim PTX: Warning %rd18 was declared previous at backprop-rodinia-3.1.sm_30.ptx:149 skipping new declaration
GPGPU-Sim PTX: instruction assembly for function '_Z24bpnn_adjust_weights_cudaPfiS_iS_S_'...   done.
GPGPU-Sim PTX: finished parsing EMBEDDED .ptx file backprop-rodinia-3.4.sm_60.ptx
GPGPU-Sim PTX: Parsing backprop-rodinia-3.5.sm_62.ptx
GPGPU-Sim PTX: Warning %p0 was declared previous at backprop-rodinia-3.1.sm_30.ptx:26 skipping new declaration
GPGPU-Sim PTX: Warning %p1 was declared previous at backprop-rodinia-3.1.sm_30.ptx:26 skipping new declaration
GPGPU-Sim PTX: Warning %p2 was declared previous at backprop-rodinia-3.1.sm_30.ptx:26 skipping new declaration
[...]
  mf: uid=2643598, sid00:w28, part=5, addr=0xc0450ba0, load , size=32, GLOBAL_R status = IN_PARTITION_ICNT_TO_L2_QUEUE (148869), 0x14d0 w28[11111111111111111111111111111111]: bpnn_layerforward_CUDA PC=0x14d0 (backprop-rodinia-3.5.sm_62.ptx:64) ld.global.f32 %f6, [%rd2+8];
  mf: uid=2643561, sid00:w28, part=5, addr=0xc0450be0, load , size=32, GLOBAL_R status = IN_PARTITION_DRAM_LATENCY_QUEUE (148870), 0x14d0 w28[11111111111111111111111111111111]: bpnn_layerforward_CUDA PC=0x14d0 (backprop-rodinia-3.5.sm_62.ptx:64) ld.global.f32 %f6, [%rd2+8];
  mf: uid=2646629, sid10:w35, part=5, addr=0xc0454720, load , size=32, GLOBAL_R status = IN_PARTITION_ROP_DELAY (148922), 0x14d0 w35[11111111111111111111111111111111]: bpnn_layerforward_CUDA PC=0x14d0 (backprop-rodinia-3.5.sm_62.ptx:64) ld.global.f32 %f6, [%rd2+8];
  mf: uid=2646619, sid01:w30, part=5, addr=0xc0453b60, load , size=32, GLOBAL_R status = IN_PARTITION_ROP_DELAY (148923), 0x14d0 w30[11111111111111111111111111111111]: bpnn_layerforward_CUDA PC=0x14d0 (backprop-rodinia-3.5.sm_62.ptx:64) ld.global.f32 %f6, [%rd2+8];
  mf: uid=2647007, sid14:w34, part=5, addr=0xc003d740, load , size=32, GLOBAL_R status = IN_PARTITION_ROP_DELAY (148942), 0x1488 w34[10000000000000001000000000000000]: bpnn_layerforward_CUDA PC=0x1488 (backprop-rodinia-3.5.sm_62.ptx:53) ld.global.f32 %f5, [%rd8+4];
  mf: uid=2646602, sid01:w30, part=5, addr=0xc0453b80, load , size=32, GLOBAL_R status = IN_PARTITION_ROP_DELAY (148921), 0x14d0 w30[11111111111111111111111111111111]: bpnn_layerforward_CUDA PC=0x14d0 (backprop-rodinia-3.5.sm_62.ptx:64) ld.global.f32 %f6, [%rd2+8];
  mf: uid=2645193, sid01:w29, part=5, addr=0xc0453b60, load , size=32, GLOBAL_R status = IN_PARTITION_ROP_DELAY (148839), 0x14d0 w29[11111111111111111111111111111111]: bpnn_layerforward_CUDA PC=0x14d0 (backprop-rodinia-3.5.sm_62.ptx:64) ld.global.f32 %f6, [%rd2+8];
  mf: uid=2646667, sid11:w40, part=5, addr=0xc0441be0, store, size=32, GLOBAL_W status = IN_PARTITION_ROP_DELAY (148925), 0x1638 w40[11111111111111111111111111111111]: bpnn_layerforward_CUDA PC=0x1638 (backprop-rodinia-3.5.sm_62.ptx:117) st.global.f32 [%rd2+8], %f18;
  mf: uid=2646725, sid11:w40, part=5, addr=0xc0441b80, store, size=32, GLOBAL_W status = IN_PARTITION_ROP_DELAY (148928), 0x1638 w40[11111111111111111111111111111111]: bpnn_layerforward_CUDA PC=0x1638 (backprop-rodinia-3.5.sm_62.ptx:117) st.global.f32 [%rd2+8], %f18;
  mf: uid=2647112, sid10:w37, part=5, addr=0xc04547c0, load , size=32, GLOBAL_R status = IN_PARTITION_ROP_DELAY (148948), 0x14d0 w37[11111111111111111111111111111111]: bpnn_layerforward_CUDA PC=0x14d0 (backprop-rodinia-3.5.sm_62.ptx:64) ld.global.f32 %f6, [%rd2+8];
  mf: uid=2642465, sid00:w27, part=5, addr=0xc0450b20, load , size=32, GLOBAL_R status = IN_PARTITION_MC_INPUT_QUEUE (148909), 0x14d0 w27[11111111111111111111111111111111]: bpnn_layerforward_CUDA PC=0x14d0 (backprop-rodinia-3.5.sm_62.ptx:64) ld.global.f32 %f6, [%rd2+8];
  mf: uid=2646706, sid11:w40, part=5, addr=0xc0441ba0, store, size=32, GLOBAL_W status = IN_PARTITION_ROP_DELAY (148927), 0x1638 w40[11111111111111111111111111111111]: bpnn_layerforward_CUDA PC=0x1638 (backprop-rodinia-3.5.sm_62.ptx:117) st.global.f32 [%rd2+8], %f18;
  mf: uid=2643161, sid00:w26, part=5, addr=0xc0450b00, load , size=32, GLOBAL_R status = IN_PARTITION_MC_INPUT_QUEUE (148947), 0x14d0 w26[11111111111111111111111111111111]: bpnn_layerforward_CUDA PC=0x14d0 (backprop-rodinia-3.5.sm_62.ptx:64) ld.global.f32 %f6, [%rd2+8];
  mf: uid=2643580, sid00:w28, part=5, addr=0xc0450bc0, load , size=32, GLOBAL_R status = IN_PARTITION_DRAM_LATENCY_QUEUE (148871), 0x14d0 w28[11111111111111111111111111111111]: bpnn_layerforward_CUDA PC=0x14d0 (backprop-rodinia-3.5.sm_62.ptx:64) ld.global.f32 %f6, [%rd2+8];
  mf: uid=2645208, sid01:w29, part=5, addr=0xc0453b40, load , size=32, GLOBAL_R status = IN_PARTITION_ROP_DELAY (148840), 0x14d0 w29[11111111111111111111111111111111]: bpnn_layerforward_CUDA PC=0x14d0 (backprop-rodinia-3.5.sm_62.ptx:64) ld.global.f32 %f6, [%rd2+8];
  mf: uid=2645223, sid01:w29, part=5, addr=0xc0453b20, load , size=32, GLOBAL_R status = IN_PARTITION_ROP_DELAY (148841), 0x14d0 w29[11111111111111111111111111111111]: bpnn_layerforward_CUDA PC=0x14d0 (backprop-rodinia-3.5.sm_62.ptx:64) ld.global.f32 %f6, [%rd2+8];
  mf: uid=2642406, sid00:w27, part=5, addr=0xc0450b80, load , size=32, GLOBAL_R status = IN_PARTITION_MC_INPUT_QUEUE (148904), 0x14d0 w27[11111111111111111111111111111111]: bpnn_layerforward_CUDA PC=0x14d0 (backprop-rodinia-3.5.sm_62.ptx:64) ld.global.f32 %f6, [%rd2+8];
  mf: uid=2645240, sid01:w29, part=5, addr=0xc0453b00, load , size=32, GLOBAL_R status = IN_PARTITION_ROP_DELAY (148842), 0x14d0 w29[11111111111111111111111111111111]: bpnn_layerforward_CUDA PC=0x14d0 (backprop-rodinia-3.5.sm_62.ptx:64) ld.global.f32 %f6, [%rd2+8];
  mf: uid=2646156, sid06:w32, part=5, addr=0xc003d7c0, load , size=32, GLOBAL_R status = IN_PARTITION_ROP_DELAY (148895), 0x1488 w32[10000000000000001000000000000000]: bpnn_layerforward_CUDA PC=0x1488 (backprop-rodinia-3.5.sm_62.ptx:53) ld.global.f32 %f5, [%rd8+4];
  mf: uid=2646554, sid01:w30, part=5, addr=0xc0453be0, load , size=32, GLOBAL_R status = IN_PARTITION_ROP_DELAY (148918), 0x14d0 w30[11111111111111111111111111111111]: bpnn_layerforward_CUDA PC=0x14d0 (backprop-rodinia-3.5.sm_62.ptx:64) ld.global.f32 %f6, [%rd2+8];
  mf: uid=2646571, sid01:w30, part=5, addr=0xc0453bc0, load , size=32, GLOBAL_R status = IN_PARTITION_ROP_DELAY (148919), 0x14d0 w30[11111111111111111111111111111111]: bpnn_layerforward_CUDA PC=0x14d0 (backprop-rodinia-3.5.sm_62.ptx:64) ld.global.f32 %f6, [%rd2+8];
  mf: uid=2647092, sid10:w37, part=5, addr=0xc04547e0, load , size=32, GLOBAL_R status = IN_PARTITION_ROP_DELAY (148947), 0x14d0 w37[11111111111111111111111111111111]: bpnn_layerforward_CUDA PC=0x14d0 (backprop-rodinia-3.5.sm_62.ptx:64) ld.global.f32 %f6, [%rd2+8];
  mf: uid=2646586, sid01:w30, part=5, addr=0xc0453ba0, load , size=32, GLOBAL_R status = IN_PARTITION_ROP_DELAY (148920), 0x14d0 w30[11111111111111111111111111111111]: bpnn_layerforward_CUDA PC=0x14d0 (backprop-rodinia-3.5.sm_62.ptx:64) ld.global.f32 %f6, [%rd2+8];
  mf: uid=2642445, sid00:w27, part=5, addr=0xc0450b40, load , size=32, GLOBAL_R status = IN_PARTITION_MC_INPUT_QUEUE (148907), 0x14d0 w27[11111111111111111111111111111111]: bpnn_layerforward_CUDA PC=0x14d0 (backprop-rodinia-3.5.sm_62.ptx:64) ld.global.f32 %f6, [%rd2+8];
  mf: uid=2642424, sid00:w27, part=5, addr=0xc0450b60, load , size=32, GLOBAL_R status = IN_PARTITION_MC_INPUT_QUEUE (148906), 0x14d0 w27[11111111111111111111111111111111]: bpnn_layerforward_CUDA PC=0x14d0 (backprop-rodinia-3.5.sm_62.ptx:64) ld.global.f32 %f6, [%rd2+8];
  mf: uid=2642387, sid00:w27, part=5, addr=0xc0450ba0, load , size=32, GLOBAL_R status = IN_PARTITION_DRAM (148948), 0x14d0 w27[11111111111111111111111111111111]: bpnn_layerforward_CUDA PC=0x14d0 (backprop-rodinia-3.5.sm_62.ptx:64) ld.global.f32 %f6, [%rd2+8];
Cache L2_bank_011:
MSHR contents
MSHR: tag=0xc0450bc0, atomic=0 1 entries : 0x7fe30642a8c0 :  mf: uid=2643580, sid00:w28, part=5, addr=0xc0450bc0, load , size=32, GLOBAL_R status = IN_PARTITION_DRAM_LATENCY_QUEUE (148871), 0x14d0 w28[11111111111111111111111111111111]: bpnn_layerforward_CUDA PC=0x14d0 (backprop-rodinia-3.5.sm_62.ptx:64) ld.global.f32 %f6, [%rd2+8];
MSHR: tag=0xc0450be0, atomic=0 1 entries : 0x7fe2f47d76c0 :  mf: uid=2643561, sid00:w28, part=5, addr=0xc0450be0, load , size=32, GLOBAL_R status = IN_PARTITION_DRAM_LATENCY_QUEUE (148870), 0x14d0 w28[11111111111111111111111111111111]: bpnn_layerforward_CUDA PC=0x14d0 (backprop-rodinia-3.5.sm_62.ptx:64) ld.global.f32 %f6, [%rd2+8];
MSHR: tag=0xc0450b00, atomic=0 1 entries : 0x7fe2f69b1810 :  mf: uid=2643161, sid00:w26, part=5, addr=0xc0450b00, load , size=32, GLOBAL_R status = IN_PARTITION_MC_INPUT_QUEUE (148947), 0x14d0 w26[11111111111111111111111111111111]: bpnn_layerforward_CUDA PC=0x14d0 (backprop-rodinia-3.5.sm_62.ptx:64) ld.global.f32 %f6, [%rd2+8];
MSHR: tag=0xc0450b20, atomic=0 1 entries : 0x7fe2f6403280 :  mf: uid=2642465, sid00:w27, part=5, addr=0xc0450b20, load , size=32, GLOBAL_R status = IN_PARTITION_MC_INPUT_QUEUE (148909), 0x14d0 w27[11111111111111111111111111111111]: bpnn_layerforward_CUDA PC=0x14d0 (backprop-rodinia-3.5.sm_62.ptx:64) ld.global.f32 %f6, [%rd2+8];
MSHR: tag=0xc0450b40, atomic=0 1 entries : 0x7fe3076dbee0 :  mf: uid=2642445, sid00:w27, part=5, addr=0xc0450b40, load , size=32, GLOBAL_R status = IN_PARTITION_MC_INPUT_QUEUE (148907), 0x14d0 w27[11111111111111111111111111111111]: bpnn_layerforward_CUDA PC=0x14d0 (backprop-rodinia-3.5.sm_62.ptx:64) ld.global.f32 %f6, [%rd2+8];
MSHR: tag=0xc0450b60, atomic=0 1 entries : 0x7fe3079b5c50 :  mf: uid=2642424, sid00:w27, part=5, addr=0xc0450b60, load , size=32, GLOBAL_R status = IN_PARTITION_MC_INPUT_QUEUE (148906), 0x14d0 w27[11111111111111111111111111111111]: bpnn_layerforward_CUDA PC=0x14d0 (backprop-rodinia-3.5.sm_62.ptx:64) ld.global.f32 %f6, [%rd2+8];
MSHR: tag=0xc0450b80, atomic=0 1 entries : 0x7fe306b81d80 :  mf: uid=2642406, sid00:w27, part=5, addr=0xc0450b80, load , size=32, GLOBAL_R status = IN_PARTITION_MC_INPUT_QUEUE (148904), 0x14d0 w27[11111111111111111111111111111111]: bpnn_layerforward_CUDA PC=0x14d0 (backprop-rodinia-3.5.sm_62.ptx:64) ld.global.f32 %f6, [%rd2+8];
MSHR: tag=0xc0450ba0, atomic=0 2 entries : 0x7fe307d35f80 :  mf: uid=2642387, sid00:w27, part=5, addr=0xc0450ba0, load , size=32, GLOBAL_R status = IN_PARTITION_DRAM (148948), 0x14d0 w27[11111111111111111111111111111111]: bpnn_layerforward_CUDA PC=0x14d0 (backprop-rodinia-3.5.sm_62.ptx:64) ld.global.f32 %f6, [%rd2+8];

In Dram Latency Queue (total = 2): 
Ready @ 148970 -   mf: uid=2643561, sid00:w28, part=5, addr=0xc0450be0, load , size=32, GLOBAL_R status = IN_PARTITION_DRAM_LATENCY_QUEUE (148870), 0x14d0 w28[11111111111111111111111111111111]: bpnn_layerforward_CUDA PC=0x14d0 (backprop-rodinia-3.5.sm_62.ptx:64) ld.global.f32 %f6, [%rd2+8];
Ready @ 148971 -   mf: uid=2643580, sid00:w28, part=5, addr=0xc0450bc0, load , size=32, GLOBAL_R status = IN_PARTITION_DRAM_LATENCY_QUEUE (148871), 0x14d0 w28[11111111111111111111111111111111]: bpnn_layerforward_CUDA PC=0x14d0 (backprop-rodinia-3.5.sm_62.ptx:64) ld.global.f32 %f6, [%rd2+8];
DRAM[5]: 16 bks, busW=4 BL=8 CL=12, tRRD=6 tCCD=2, tRCD=12 tRAS=28 tRP=12 tRC=40
n_cmd=196612 n_nop=157753 n_act=2821 n_pre=2805 n_ref_event=4562280503665652019 n_req=28420 n_rd=23515 n_rd_L2_A=0 n_write=0 n_wr_bk=9794 bw_util=0.3388
n_activity=152841 dram_eff=0.4359
bk0: 1536a 183613i bk1: 1536a 183675i bk2: 1536a 182493i bk3: 1536a 182907i bk4: 1536a 183108i bk5: 1536a 182691i bk6: 1536a 183100i bk7: 1536a 182160i bk8: 1419a 183048i bk9: 1416a 183713i bk10: 1376a 184382i bk11: 1384a 184901i bk12: 1408a 184348i bk13: 1408a 184719i bk14: 1408a 185231i bk15: 1408a 184776i 

------------------------------------------------------------------------

Row_Buffer_Locality = 0.900996
Row_Buffer_Locality_read = 0.939233
Row_Buffer_Locality_write = 0.717378
Bank_Level_Parallism = 1.749514
Bank_Level_Parallism_Col = 2.048680
Bank_Level_Parallism_Ready = 1.082443
write_to_read_ratio_blp_rw_average = 0.425857
GrpLevelPara = 1.386478 

BW Util details:
bwutil = 0.338830 
total_CMD = 196612 
util_bw = 66618 
Wasted_Col = 50386 
Wasted_Row = 18098 
Idle = 61510 

BW Util Bottlenecks: 
RCDc_limit = 12985 
RCDWRc_limit = 6326 
WTRc_limit = 10235 
RTWc_limit = 24579 
CCDLc_limit = 24177 
rwq = 0 
CCDLc_limit_alone = 18478 
WTRc_limit_alone = 9067 
RTWc_limit_alone = 20048 

Commands details: 
total_CMD = 196612 
n_nop = 157753 
Read = 23515 
Write = 0 
L2_Alloc = 0 
L2_WB = 9794 
n_act = 2821 
n_pre = 2805 
n_ref = 4562280503665652019 
n_req = 28420 
total_req = 33309 

Dual Bus Interface Util: 
issued_total_row = 5626 
issued_total_col = 33309 
Row_Bus_Util =  0.028615 
CoL_Bus_Util = 0.169415 
Either_Row_CoL_Bus_Util = 0.197643 
Issued_on_Two_Bus_Simul_Util = 0.000387 
issued_two_Eff = 0.001956 
queue_avg = 3.804554 


dram_util_bins: 0 0 0 0 0 0 0 0 0 0
dram_eff_bins: 0 0 0 0 0 0 0 0 0 0
mrqq: max=64 avg=3.80455

========= L2 cache stats =========
L2_cache_bank[0]: Access = 31851, Miss = 14336, Miss_rate = 0.450, Pending_hits = 2957, Reservation_fails = 2145
L2_cache_bank[1]: Access = 31823, Miss = 14358, Miss_rate = 0.451, Pending_hits = 2894, Reservation_fails = 2359
L2_cache_bank[2]: Access = 31826, Miss = 14330, Miss_rate = 0.450, Pending_hits = 2901, Reservation_fails = 1873
L2_cache_bank[3]: Access = 31829, Miss = 14360, Miss_rate = 0.451, Pending_hits = 2907, Reservation_fails = 1619
L2_cache_bank[4]: Access = 31798, Miss = 14324, Miss_rate = 0.450, Pending_hits = 2944, Reservation_fails = 2144
L2_cache_bank[5]: Access = 31943, Miss = 14358, Miss_rate = 0.449, Pending_hits = 2965, Reservation_fails = 2252
L2_cache_bank[6]: Access = 31825, Miss = 14355, Miss_rate = 0.451, Pending_hits = 2952, Reservation_fails = 1638
L2_cache_bank[7]: Access = 31947, Miss = 14351, Miss_rate = 0.449, Pending_hits = 2962, Reservation_fails = 2165
L2_cache_bank[8]: Access = 31818, Miss = 14352, Miss_rate = 0.451, Pending_hits = 2936, Reservation_fails = 2336
L2_cache_bank[9]: Access = 31930, Miss = 14335, Miss_rate = 0.449, Pending_hits = 3000, Reservation_fails = 1986
L2_cache_bank[10]: Access = 31805, Miss = 14347, Miss_rate = 0.451, Pending_hits = 2938, Reservation_fails = 1867
L2_cache_bank[11]: Access = 31804, Miss = 14328, Miss_rate = 0.451, Pending_hits = 2954, Reservation_fails = 1485
L2_total_cache_accesses = 382199
L2_total_cache_misses = 172134
L2_total_cache_miss_rate = 0.4504
L2_total_cache_pending_hits = 35310
L2_total_cache_reservation_fails = 23869
L2_total_cache_breakdown:
	L2_cache_stats_breakdown[GLOBAL_ACC_R][HIT] = 19807
	L2_cache_stats_breakdown[GLOBAL_ACC_R][HIT_RESERVED] = 35232
	L2_cache_stats_breakdown[GLOBAL_ACC_R][MISS] = 35306
	L2_cache_stats_breakdown[GLOBAL_ACC_R][RESERVATION_FAIL] = 23205
	L2_cache_stats_breakdown[GLOBAL_ACC_R][SECTOR_MISS] = 105898
	L2_cache_stats_breakdown[LOCAL_ACC_R][HIT] = 0
	L2_cache_stats_breakdown[LOCAL_ACC_R][HIT_RESERVED] = 0
	L2_cache_stats_breakdown[LOCAL_ACC_R][MISS] = 0
	L2_cache_stats_breakdown[LOCAL_ACC_R][RESERVATION_FAIL] = 0
	L2_cache_stats_breakdown[LOCAL_ACC_R][SECTOR_MISS] = 0
	L2_cache_stats_breakdown[CONST_ACC_R][HIT] = 22
	L2_cache_stats_breakdown[CONST_ACC_R][HIT_RESERVED] = 6
	L2_cache_stats_breakdown[CONST_ACC_R][MISS] = 1
	L2_cache_stats_breakdown[CONST_ACC_R][RESERVATION_FAIL] = 106
	L2_cache_stats_breakdown[CONST_ACC_R][SECTOR_MISS] = 1
	L2_cache_stats_breakdown[TEXTURE_ACC_R][HIT] = 0
	L2_cache_stats_breakdown[TEXTURE_ACC_R][HIT_RESERVED] = 0
	L2_cache_stats_breakdown[TEXTURE_ACC_R][MISS] = 0
	L2_cache_stats_breakdown[TEXTURE_ACC_R][RESERVATION_FAIL] = 0
	L2_cache_stats_breakdown[TEXTURE_ACC_R][SECTOR_MISS] = 0
	L2_cache_stats_breakdown[GLOBAL_ACC_W][HIT] = 154662
	L2_cache_stats_breakdown[GLOBAL_ACC_W][HIT_RESERVED] = 0
	L2_cache_stats_breakdown[GLOBAL_ACC_W][MISS] = 1933
	L2_cache_stats_breakdown[GLOBAL_ACC_W][RESERVATION_FAIL] = 0
	L2_cache_stats_breakdown[GLOBAL_ACC_W][SECTOR_MISS] = 28971
	L2_cache_stats_breakdown[LOCAL_ACC_W][HIT] = 0
	L2_cache_stats_breakdown[LOCAL_ACC_W][HIT_RESERVED] = 0
	L2_cache_stats_breakdown[LOCAL_ACC_W][MISS] = 0
	L2_cache_stats_breakdown[LOCAL_ACC_W][RESERVATION_FAIL] = 0
	L2_cache_stats_breakdown[LOCAL_ACC_W][SECTOR_MISS] = 0
	L2_cache_stats_breakdown[L1_WRBK_ACC][HIT] = 0
	L2_cache_stats_breakdown[L1_WRBK_ACC][HIT_RESERVED] = 0
	L2_cache_stats_breakdown[L1_WRBK_ACC][MISS] = 0
	L2_cache_stats_breakdown[L1_WRBK_ACC][RESERVATION_FAIL] = 0
	L2_cache_stats_breakdown[L1_WRBK_ACC][SECTOR_MISS] = 0
	L2_cache_stats_breakdown[L2_WRBK_ACC][HIT] = 0
	L2_cache_stats_breakdown[L2_WRBK_ACC][HIT_RESERVED] = 0
	L2_cache_stats_breakdown[L2_WRBK_ACC][MISS] = 0
	L2_cache_stats_breakdown[L2_WRBK_ACC][RESERVATION_FAIL] = 0
	L2_cache_stats_breakdown[L2_WRBK_ACC][SECTOR_MISS] = 0
	L2_cache_stats_breakdown[INST_ACC_R][HIT] = 264
	L2_cache_stats_breakdown[INST_ACC_R][HIT_RESERVED] = 72
	L2_cache_stats_breakdown[INST_ACC_R][MISS] = 6
	L2_cache_stats_breakdown[INST_ACC_R][RESERVATION_FAIL] = 558
	L2_cache_stats_breakdown[INST_ACC_R][SECTOR_MISS] = 18
	L2_cache_stats_breakdown[L1_WR_ALLOC_R][HIT] = 0
	L2_cache_stats_breakdown[L1_WR_ALLOC_R][HIT_RESERVED] = 0
	L2_cache_stats_breakdown[L1_WR_ALLOC_R][MISS] = 0
	L2_cache_stats_breakdown[L1_WR_ALLOC_R][RESERVATION_FAIL] = 0
	L2_cache_stats_breakdown[L1_WR_ALLOC_R][SECTOR_MISS] = 0
	L2_cache_stats_breakdown[L2_WR_ALLOC_R][HIT] = 0
	L2_cache_stats_breakdown[L2_WR_ALLOC_R][HIT_RESERVED] = 0
	L2_cache_stats_breakdown[L2_WR_ALLOC_R][MISS] = 0
	L2_cache_stats_breakdown[L2_WR_ALLOC_R][RESERVATION_FAIL] = 0
	L2_cache_stats_breakdown[L2_WR_ALLOC_R][SECTOR_MISS] = 0
	L2_cache_stats_breakdown[GLOBAL_ACC_R][TOTAL_ACCESS] = 196243
	L2_cache_stats_breakdown[CONST_ACC_R][TOTAL_ACCESS] = 30
	L2_cache_stats_breakdown[GLOBAL_ACC_W][TOTAL_ACCESS] = 185566
	L2_cache_stats_breakdown[INST_ACC_R][TOTAL_ACCESS] = 360
L2_total_cache_reservation_fail_breakdown:
	L2_cache_stats_fail_breakdown[GLOBAL_ACC_R][MISS_QUEUE_FULL] = 495
	L2_cache_stats_fail_breakdown[GLOBAL_ACC_R][MSHR_MERGE_ENRTY_FAIL] = 22710
	L2_cache_stats_fail_breakdown[CONST_ACC_R][MSHR_MERGE_ENRTY_FAIL] = 106
	L2_cache_stats_fail_breakdown[INST_ACC_R][MSHR_MERGE_ENRTY_FAIL] = 558
L2_cache_data_port_util = 0.101
L2_cache_fill_port_util = 0.079

icnt_total_pkts_mem_to_simt=382031
icnt_total_pkts_simt_to_mem=382248
LD_mem_lat_dist  0 0 0 0 0 0 0 0 0 0 0 0 0 0 0 0 0 0 0 0 0 0 0 0 0 0 0
ST_mem_lat_dist  0 0 0 0 0 0 0 0 0 0 0 0 0 0 0 0 0 0 0 0 0 0 0 0 0 0 0
----------------------------Interconnect-DETAILS--------------------------------
Class 0:
Packet latency average = 8.52591
	minimum = 5
	maximum = 514
Network latency average = 8.49354
	minimum = 5
	maximum = 501
Slowest packet = 3093
Flit latency average = 8.49354
	minimum = 5
	maximum = 501
Slowest flit = 3093
Fragmentation average = 0
	minimum = 0
	maximum = 0
Injected packet rate average = 0.19005
	minimum = 0.17077 (at node 9)
	maximum = 0.214328 (at node 22)
Accepted packet rate average = 0.190037
	minimum = 0.170683 (at node 11)
	maximum = 0.214161 (at node 22)
Injected flit rate average = 0.19005
	minimum = 0.17077 (at node 9)
	maximum = 0.214328 (at node 22)
Accepted flit rate average= 0.190037
	minimum = 0.170683 (at node 11)
	maximum = 0.214161 (at node 22)
Injected packet length average = 1
Accepted packet length average = 1
Total in-flight flits = 57 (57 measured)
====== Overall Traffic Statistics ======
====== Traffic class 0 ======
Packet latency average = 8.52591 (1 samples)
	minimum = 5 (1 samples)
	maximum = 514 (1 samples)
Network latency average = 8.49354 (1 samples)
	minimum = 5 (1 samples)
	maximum = 501 (1 samples)
Flit latency average = 8.49354 (1 samples)
	minimum = 5 (1 samples)
	maximum = 501 (1 samples)
Fragmentation average = 0 (1 samples)
	minimum = 0 (1 samples)
	maximum = 0 (1 samples)
Injected packet rate average = 0.19005 (1 samples)
	minimum = 0.17077 (1 samples)
	maximum = 0.214328 (1 samples)
Accepted packet rate average = 0.190037 (1 samples)
	minimum = 0.170683 (1 samples)
	maximum = 0.214161 (1 samples)
Injected flit rate average = 0.19005 (1 samples)
	minimum = 0.17077 (1 samples)
	maximum = 0.214328 (1 samples)
Accepted flit rate average = 0.190037 (1 samples)
	minimum = 0.170683 (1 samples)
	maximum = 0.214161 (1 samples)
Injected packet size average = 1 (1 samples)
Accepted packet size average = 1 (1 samples)
Hops average = 1 (1 samples)
----------------------------END-of-Interconnect-DETAILS-------------------------


gpgpu_simulation_time = 0 days, 0 hrs, 4 min, 9 sec (249 sec)
gpgpu_simulation_rate = 401607 (inst/sec)
gpgpu_simulation_rate = 598 (cycle/sec)
gpgpu_silicon_slowdown = 1170568x
GPGPU-Sim: *** simulation thread exiting ***
GPGPU-Sim: ** break due to reaching the maximum cycles (or instructions) **
GPGPU-Sim: *** exit detected ***
