

        *** GPGPU-Sim Simulator Version 4.0.0  [build gpgpu-sim_git-commit-90ec3399763d7c8512cfe7dc193473086c38ca38_modified_0.0] ***


GPGPU-Sim PTX: simulation mode 0 (can change with PTX_SIM_MODE_FUNC environment variable:
               1=functional simulation only, 0=detailed performance simulator)
GPGPU-Sim PTX: overriding embedded ptx with ptx file (PTX_SIM_USE_PTX_FILE is set)
GPGPU-Sim: Configuration options:

-save_embedded_ptx                      0 # saves ptx files embedded in binary as <n>.ptx
-keep                                   0 # keep intermediate files created by GPGPU-Sim when interfacing with external programs
-gpgpu_ptx_save_converted_ptxplus                    0 # Saved converted ptxplus to a file
-gpgpu_occupancy_sm_number                   20 # The SM number to pass to ptxas when getting register usage for computing GPU occupancy. This parameter is required in the config.
-ptx_opcode_latency_int      4,13,4,5,145,32 # Opcode latencies for integers <ADD,MAX,MUL,MAD,DIV,SHFL>Default 1,1,19,25,145,32
-ptx_opcode_latency_fp          4,13,4,5,39 # Opcode latencies for single precision floating points <ADD,MAX,MUL,MAD,DIV>Default 1,1,1,1,30
-ptx_opcode_latency_dp         8,19,8,8,330 # Opcode latencies for double precision floating points <ADD,MAX,MUL,MAD,DIV>Default 8,8,8,8,335
-ptx_opcode_latency_sfu                    8 # Opcode latencies for SFU instructionsDefault 8
-ptx_opcode_latency_tesnor                   64 # Opcode latencies for Tensor instructionsDefault 64
-ptx_opcode_initiation_int          1,2,2,1,8,4 # Opcode initiation intervals for integers <ADD,MAX,MUL,MAD,DIV,SHFL>Default 1,1,4,4,32,4
-ptx_opcode_initiation_fp            1,2,1,1,4 # Opcode initiation intervals for single precision floating points <ADD,MAX,MUL,MAD,DIV>Default 1,1,1,1,5
-ptx_opcode_initiation_dp         8,16,8,8,130 # Opcode initiation intervals for double precision floating points <ADD,MAX,MUL,MAD,DIV>Default 8,8,8,8,130
-ptx_opcode_initiation_sfu                    8 # Opcode initiation intervals for sfu instructionsDefault 8
-ptx_opcode_initiation_tensor                   64 # Opcode initiation intervals for tensor instructionsDefault 64
-cdp_latency         7200,8000,100,12000,1600 # CDP API latency <cudaStreamCreateWithFlags, cudaGetParameterBufferV2_init_perWarp, cudaGetParameterBufferV2_perKernel, cudaLaunchDeviceV2_init_perWarp, cudaLaunchDevicV2_perKernel>Default 7200,8000,100,12000,1600
-network_mode                           1 # Interconnection network mode
-inter_config_file   config_fermi_islip.icnt # Interconnection network config file
-icnt_in_buffer_limit                   64 # in_buffer_limit
-icnt_out_buffer_limit                   64 # out_buffer_limit
-icnt_subnets                           2 # subnets
-icnt_arbiter_algo                      1 # arbiter_algo
-icnt_verbose                           0 # inct_verbose
-icnt_grant_cycles                      1 # grant_cycles
-gpgpu_ptx_use_cuobjdump                    1 # Use cuobjdump to extract ptx and sass from binaries
-gpgpu_experimental_lib_support                    0 # Try to extract code from cuda libraries [Broken because of unknown cudaGetExportTable]
-checkpoint_option                      0 #  checkpointing flag (0 = no checkpoint)
-checkpoint_kernel                      1 #  checkpointing during execution of which kernel (1- 1st kernel)
-checkpoint_CTA                         0 #  checkpointing after # of CTA (< less than total CTA)
-resume_option                          0 #  resume flag (0 = no resume)
-resume_kernel                          0 #  Resume from which kernel (1= 1st kernel)
-resume_CTA                             0 #  resume from which CTA 
-checkpoint_CTA_t                       0 #  resume from which CTA 
-checkpoint_insn_Y                      0 #  resume from which CTA 
-gpgpu_ptx_convert_to_ptxplus                    0 # Convert SASS (native ISA) to ptxplus and run ptxplus
-gpgpu_ptx_force_max_capability                   20 # Force maximum compute capability
-gpgpu_ptx_inst_debug_to_file                    0 # Dump executed instructions' debug information to file
-gpgpu_ptx_inst_debug_file       inst_debug.txt # Executed instructions' debug output file
-gpgpu_ptx_inst_debug_thread_uid                    1 # Thread UID for executed instructions' debug output
-gpgpu_simd_model                       1 # 1 = post-dominator
-gpgpu_shader_core_pipeline              1536:32 # shader core pipeline config, i.e., {<nthread>:<warpsize>}
-gpgpu_tex_cache:l1  N:4:128:24,L:R:m:N:L,T:128:4,128:2 # per-shader L1 texture cache  (READ-ONLY) config  {<nsets>:<bsize>:<assoc>,<rep>:<wr>:<alloc>:<wr_alloc>,<mshr>:<N>:<merge>,<mq>:<rf>}
-gpgpu_const_cache:l1 N:64:64:2,L:R:f:N:L,S:2:32,4 # per-shader L1 constant memory cache  (READ-ONLY) config  {<nsets>:<bsize>:<assoc>,<rep>:<wr>:<alloc>:<wr_alloc>,<mshr>:<N>:<merge>,<mq>} 
-gpgpu_cache:il1     N:4:128:4,L:R:f:N:L,S:2:32,4 # shader L1 instruction cache config  {<nsets>:<bsize>:<assoc>,<rep>:<wr>:<alloc>:<wr_alloc>,<mshr>:<N>:<merge>,<mq>} 
-gpgpu_cache:dl1     N:32:128:4,L:L:m:N:H,S:64:8,8 # per-shader L1 data cache config  {<nsets>:<bsize>:<assoc>,<rep>:<wr>:<alloc>:<wr_alloc>,<mshr>:<N>:<merge>,<mq> | none}
-gpgpu_l1_banks                         1 # The number of L1 cache banks
-gpgpu_l1_banks_byte_interleaving                   32 # l1 banks byte interleaving granularity
-gpgpu_l1_banks_hashing_function                    0 # l1 banks hashing function
-gpgpu_l1_latency                      35 # L1 Hit Latency
-gpgpu_smem_latency                    26 # smem Latency
-gpgpu_cache:dl1PrefL1                 none # per-shader L1 data cache config  {<nsets>:<bsize>:<assoc>,<rep>:<wr>:<alloc>:<wr_alloc>,<mshr>:<N>:<merge>,<mq> | none}
-gpgpu_cache:dl1PrefShared                 none # per-shader L1 data cache config  {<nsets>:<bsize>:<assoc>,<rep>:<wr>:<alloc>:<wr_alloc>,<mshr>:<N>:<merge>,<mq> | none}
-gpgpu_gmem_skip_L1D                    1 # global memory access skip L1D cache (implements -Xptxas -dlcm=cg, default=no skip)
-gpgpu_perfect_mem                      0 # enable perfect memory mode (no cache miss)
-n_regfile_gating_group                    4 # group of lanes that should be read/written together)
-gpgpu_clock_gated_reg_file                    0 # enable clock gated reg file for power calculations
-gpgpu_clock_gated_lanes                    0 # enable clock gated lanes for power calculations
-gpgpu_shader_registers                32768 # Number of registers per shader core. Limits number of concurrent CTAs. (default 8192)
-gpgpu_registers_per_block                 8192 # Maximum number of registers per CTA. (default 8192)
-gpgpu_ignore_resources_limitation                    0 # gpgpu_ignore_resources_limitation (default 0)
-gpgpu_shader_cta                       8 # Maximum number of concurrent CTAs in shader (default 8)
-gpgpu_num_cta_barriers                   16 # Maximum number of named barriers per CTA (default 16)
-gpgpu_n_clusters                      15 # number of processing clusters
-gpgpu_n_cores_per_cluster                    1 # number of simd cores per cluster
-gpgpu_n_cluster_ejection_buffer_size                   32 # number of packets in ejection buffer
-gpgpu_n_ldst_response_buffer_size                    2 # number of response packets in ld/st unit ejection buffer
-gpgpu_shmem_per_block                49152 # Size of shared memory per thread block or CTA (default 48kB)
-gpgpu_shmem_size                   49152 # Size of shared memory per shader core (default 16kB)
-gpgpu_adaptive_cache_config                    0 # adaptive_cache_config
-gpgpu_shmem_sizeDefault                49152 # Size of shared memory per shader core (default 16kB)
-gpgpu_shmem_size_PrefL1                16384 # Size of shared memory per shader core (default 16kB)
-gpgpu_shmem_size_PrefShared                16384 # Size of shared memory per shader core (default 16kB)
-gpgpu_shmem_num_banks                   32 # Number of banks in the shared memory in each shader core (default 16)
-gpgpu_shmem_limited_broadcast                    0 # Limit shared memory to do one broadcast per cycle (default on)
-gpgpu_shmem_warp_parts                    1 # Number of portions a warp is divided into for shared memory bank conflict check 
-gpgpu_mem_unit_ports                    1 # The number of memory transactions allowed per core cycle
-gpgpu_shmem_warp_parts                    1 # Number of portions a warp is divided into for shared memory bank conflict check 
-gpgpu_warpdistro_shader                   -1 # Specify which shader core to collect the warp size distribution from
-gpgpu_warp_issue_shader                    0 # Specify which shader core to collect the warp issue distribution from
-gpgpu_local_mem_map                    1 # Mapping from local memory space address to simulated GPU physical address space (default = enabled)
-gpgpu_num_reg_banks                   16 # Number of register banks (default = 8)
-gpgpu_reg_bank_use_warp_id                    0 # Use warp ID in mapping registers to banks (default = off)
-gpgpu_sub_core_model                    0 # Sub Core Volta/Pascal model (default = off)
-gpgpu_enable_specialized_operand_collector                    1 # enable_specialized_operand_collector
-gpgpu_operand_collector_num_units_sp                    6 # number of collector units (default = 4)
-gpgpu_operand_collector_num_units_dp                    0 # number of collector units (default = 0)
-gpgpu_operand_collector_num_units_sfu                    8 # number of collector units (default = 4)
-gpgpu_operand_collector_num_units_int                    0 # number of collector units (default = 0)
-gpgpu_operand_collector_num_units_tensor_core                    4 # number of collector units (default = 4)
-gpgpu_operand_collector_num_units_mem                    2 # number of collector units (default = 2)
-gpgpu_operand_collector_num_units_gen                    0 # number of collector units (default = 0)
-gpgpu_operand_collector_num_in_ports_sp                    2 # number of collector unit in ports (default = 1)
-gpgpu_operand_collector_num_in_ports_dp                    0 # number of collector unit in ports (default = 0)
-gpgpu_operand_collector_num_in_ports_sfu                    1 # number of collector unit in ports (default = 1)
-gpgpu_operand_collector_num_in_ports_int                    0 # number of collector unit in ports (default = 0)
-gpgpu_operand_collector_num_in_ports_tensor_core                    1 # number of collector unit in ports (default = 1)
-gpgpu_operand_collector_num_in_ports_mem                    1 # number of collector unit in ports (default = 1)
-gpgpu_operand_collector_num_in_ports_gen                    0 # number of collector unit in ports (default = 0)
-gpgpu_operand_collector_num_out_ports_sp                    2 # number of collector unit in ports (default = 1)
-gpgpu_operand_collector_num_out_ports_dp                    0 # number of collector unit in ports (default = 0)
-gpgpu_operand_collector_num_out_ports_sfu                    1 # number of collector unit in ports (default = 1)
-gpgpu_operand_collector_num_out_ports_int                    0 # number of collector unit in ports (default = 0)
-gpgpu_operand_collector_num_out_ports_tensor_core                    1 # number of collector unit in ports (default = 1)
-gpgpu_operand_collector_num_out_ports_mem                    1 # number of collector unit in ports (default = 1)
-gpgpu_operand_collector_num_out_ports_gen                    0 # number of collector unit in ports (default = 0)
-gpgpu_coalesce_arch                   20 # Coalescing arch (GT200 = 13, Fermi = 20)
-gpgpu_num_sched_per_core                    2 # Number of warp schedulers per core
-gpgpu_max_insn_issue_per_warp                    1 # Max number of instructions that can be issued per warp in one cycle by scheduler (either 1 or 2)
-gpgpu_dual_issue_diff_exec_units                    1 # should dual issue use two different execution unit resources (Default = 1)
-gpgpu_simt_core_sim_order                    1 # Select the simulation order of cores in a cluster (0=Fix, 1=Round-Robin)
-gpgpu_pipeline_widths 2,0,0,1,1,2,0,0,1,1,2 # Pipeline widths ID_OC_SP,ID_OC_DP,ID_OC_INT,ID_OC_SFU,ID_OC_MEM,OC_EX_SP,OC_EX_DP,OC_EX_INT,OC_EX_SFU,OC_EX_MEM,EX_WB,ID_OC_TENSOR_CORE,OC_EX_TENSOR_CORE
-gpgpu_tensor_core_avail                    0 # Tensor Core Available (default=0)
-gpgpu_num_sp_units                     2 # Number of SP units (default=1)
-gpgpu_num_dp_units                     0 # Number of DP units (default=0)
-gpgpu_num_int_units                    0 # Number of INT units (default=0)
-gpgpu_num_sfu_units                    1 # Number of SF units (default=1)
-gpgpu_num_tensor_core_units                    0 # Number of tensor_core units (default=1)
-gpgpu_num_mem_units                    1 # Number if ldst units (default=1) WARNING: not hooked up to anything
-gpgpu_scheduler                      gto # Scheduler configuration: < lrr | gto | two_level_active > If two_level_active:<num_active_warps>:<inner_prioritization>:<outer_prioritization>For complete list of prioritization values see shader.h enum scheduler_prioritization_typeDefault: gto
-gpgpu_concurrent_kernel_sm                    0 # Support concurrent kernels on a SM (default = disabled)
-gpgpu_perfect_inst_const_cache                    0 # perfect inst and const cache mode, so all inst and const hits in the cache(default = disabled)
-gpgpu_inst_fetch_throughput                    1 # the number of fetched intruction per warp each cycle
-gpgpu_reg_file_port_throughput                    1 # the number ports of the register file
-specialized_unit_1         0,4,4,4,4,BRA # specialized unit config {<enabled>,<num_units>:<latency>:<initiation>,<ID_OC_SPEC>:<OC_EX_SPEC>,<NAME>}
-specialized_unit_2         0,4,4,4,4,BRA # specialized unit config {<enabled>,<num_units>:<latency>:<initiation>,<ID_OC_SPEC>:<OC_EX_SPEC>,<NAME>}
-specialized_unit_3         0,4,4,4,4,BRA # specialized unit config {<enabled>,<num_units>:<latency>:<initiation>,<ID_OC_SPEC>:<OC_EX_SPEC>,<NAME>}
-specialized_unit_4         0,4,4,4,4,BRA # specialized unit config {<enabled>,<num_units>:<latency>:<initiation>,<ID_OC_SPEC>:<OC_EX_SPEC>,<NAME>}
-specialized_unit_5         0,4,4,4,4,BRA # specialized unit config {<enabled>,<num_units>:<latency>:<initiation>,<ID_OC_SPEC>:<OC_EX_SPEC>,<NAME>}
-specialized_unit_6         0,4,4,4,4,BRA # specialized unit config {<enabled>,<num_units>:<latency>:<initiation>,<ID_OC_SPEC>:<OC_EX_SPEC>,<NAME>}
-specialized_unit_7         0,4,4,4,4,BRA # specialized unit config {<enabled>,<num_units>:<latency>:<initiation>,<ID_OC_SPEC>:<OC_EX_SPEC>,<NAME>}
-specialized_unit_8         0,4,4,4,4,BRA # specialized unit config {<enabled>,<num_units>:<latency>:<initiation>,<ID_OC_SPEC>:<OC_EX_SPEC>,<NAME>}
-gpgpu_perf_sim_memcpy                    1 # Fill the L2 cache on memcpy
-gpgpu_simple_dram_model                    0 # simple_dram_model with fixed latency and BW
-gpgpu_dram_scheduler                    1 # 0 = fifo, 1 = FR-FCFS (defaul)
-gpgpu_dram_partition_queues          64:64:64:64 # i2$:$2d:d2$:$2i
-l2_ideal                               0 # Use a ideal L2 cache that always hit
-gpgpu_cache:dl2     S:64:128:8,L:B:m:L:L,A:256:4,4:0,32 # unified banked L2 data cache config  {<nsets>:<bsize>:<assoc>,<rep>:<wr>:<alloc>:<wr_alloc>,<mshr>:<N>:<merge>,<mq>}
-gpgpu_cache:dl2_texture_only                    0 # L2 cache used for texture only
-gpgpu_n_mem                            6 # number of memory modules (e.g. memory controllers) in gpu
-gpgpu_n_sub_partition_per_mchannel                    2 # number of memory subpartition in each memory module
-gpgpu_n_mem_per_ctrlr                    2 # number of memory chips per memory controller
-gpgpu_memlatency_stat                   14 # track and display latency statistics 0x2 enables MC, 0x4 enables queue logs
-gpgpu_frfcfs_dram_sched_queue_size                   64 # 0 = unlimited (default); # entries per chip
-gpgpu_dram_return_queue_size                  116 # 0 = unlimited (default); # entries per chip
-gpgpu_dram_buswidth                    4 # default = 4 bytes (8 bytes per cycle at DDR)
-gpgpu_dram_burst_length                    8 # Burst length of each DRAM request (default = 4 data bus cycle)
-dram_data_command_freq_ratio                    4 # Frequency ratio between DRAM data bus and command bus (default = 2 times, i.e. DDR)
-gpgpu_dram_timing_opt nbk=16:CCD=2:RRD=6:RCD=12:RAS=28:RP=12:RC=40: CL=12:WL=4:CDLR=5:WR=12:nbkgrp=4:CCDL=3:RTPL=2 # DRAM timing parameters = {nbk:tCCD:tRRD:tRCD:tRAS:tRP:tRC:CL:WL:tCDLR:tWR:nbkgrp:tCCDL:tRTPL}
-gpgpu_l2_rop_latency                  120 # ROP queue latency (default 85)
-dram_latency                         100 # DRAM latency (default 30)
-dram_dual_bus_interface                    0 # dual_bus_interface (default = 0) 
-dram_bnk_indexing_policy                    0 # dram_bnk_indexing_policy (0 = normal indexing, 1 = Xoring with the higher bits) (Default = 0)
-dram_bnkgrp_indexing_policy                    1 # dram_bnkgrp_indexing_policy (0 = take higher bits, 1 = take lower bits) (Default = 0)
-dram_seperate_write_queue_enable                    0 # Seperate_Write_Queue_Enable
-dram_write_queue_size             32:28:16 # Write_Queue_Size
-dram_elimnate_rw_turnaround                    0 # elimnate_rw_turnaround i.e set tWTR and tRTW = 0
-icnt_flit_size                        40 # icnt_flit_size
-gpgpu_mem_addr_mapping dramid@8;00000000.00000000.00000000.00000000.0000RRRR.RRRRRRRR.BBBCCCCB.CCSSSSSS # mapping memory address to dram model {dramid@<start bit>;<memory address map>}
-gpgpu_mem_addr_test                    0 # run sweep test to check address mapping for aliased address
-gpgpu_mem_address_mask                    1 # 0 = old addressing mask, 1 = new addressing mask, 2 = new add. mask + flipped bank sel and chip sel bits
-gpgpu_memory_partition_indexing                    0 # 0 = no indexing, 1 = bitwise xoring, 2 = IPoly, 3 = custom indexing
-gpuwattch_xml_file  gpuwattch_gtx480.xml # GPUWattch XML file
-power_simulation_enabled                    1 # Turn on power simulator (1=On, 0=Off)
-power_per_cycle_dump                    0 # Dump detailed power output each cycle
-power_trace_enabled                    0 # produce a file for the power trace (1=On, 0=Off)
-power_trace_zlevel                     6 # Compression level of the power trace output log (0=no comp, 9=highest)
-steady_power_levels_enabled                    0 # produce a file for the steady power levels (1=On, 0=Off)
-steady_state_definition                  8:4 # allowed deviation:number of samples
-gpgpu_max_cycle                        0 # terminates gpu simulation early (0 = no limit)
-gpgpu_max_insn                 100000000 # terminates gpu simulation early (0 = no limit)
-gpgpu_max_cta                          0 # terminates gpu simulation early (0 = no limit)
-gpgpu_max_completed_cta                    0 # terminates gpu simulation early (0 = no limit)
-gpgpu_runtime_stat                   500 # display runtime statistics such as dram utilization {<freq>:<flag>}
-liveness_message_freq                    1 # Minimum number of seconds between simulation liveness messages (0 = always print)
-gpgpu_compute_capability_major                    2 # Major compute capability version number
-gpgpu_compute_capability_minor                    0 # Minor compute capability version number
-gpgpu_flush_l1_cache                    1 # Flush L1 cache at the end of each kernel call
-gpgpu_flush_l2_cache                    0 # Flush L2 cache at the end of each kernel call
-gpgpu_deadlock_detect                    1 # Stop the simulation at deadlock (1=on (default), 0=off)
-gpgpu_ptx_instruction_classification                    0 # if enabled will classify ptx instruction types per kernel (Max 255 kernels now)
-gpgpu_ptx_sim_mode                     0 # Select between Performance (default) or Functional simulation (1)
-gpgpu_clock_domains 700.0:700.0:700.0:924.0 # Clock Domain Frequencies in MhZ {<Core Clock>:<ICNT Clock>:<L2 Clock>:<DRAM Clock>}
-gpgpu_max_concurrent_kernel                    8 # maximum kernels that can run concurrently on GPU
-gpgpu_cflog_interval                    0 # Interval between each snapshot in control flow logger
-visualizer_enabled                     0 # Turn on visualizer output (1=On, 0=Off)
-visualizer_outputfile                 NULL # Specifies the output log file for visualizer
-visualizer_zlevel                      6 # Compression level of the visualizer output log (0=no comp, 9=highest)
-gpgpu_stack_size_limit                 1024 # GPU thread stack size
-gpgpu_heap_size_limit              8388608 # GPU malloc heap size 
-gpgpu_runtime_sync_depth_limit                    2 # GPU device runtime synchronize depth
-gpgpu_runtime_pending_launch_count_limit                 2048 # GPU device runtime pending launch count
-trace_enabled                          0 # Turn on traces
-trace_components                    none # comma seperated list of traces to enable. Complete list found in trace_streams.tup. Default none
-trace_sampling_core                    0 # The core which is printed using CORE_DPRINTF. Default 0
-trace_sampling_memory_partition                   -1 # The memory partition which is printed using MEMPART_DPRINTF. Default -1 (i.e. all)
-enable_ptx_file_line_stats                    1 # Turn on PTX source line statistic profiling. (1 = On)
-ptx_line_stats_filename gpgpu_inst_stats.txt # Output file for PTX source line statistics.
-gpgpu_kernel_launch_latency                    0 # Kernel launch latency in cycles. Default: 0
-gpgpu_cdp_enabled                      0 # Turn on CDP
-gpgpu_TB_launch_latency                    0 # thread block launch latency in cycles. Default: 0
DRAM Timing Options:
nbk                                    16 # number of banks
CCD                                     2 # column to column delay
RRD                                     6 # minimal delay between activation of rows in different banks
RCD                                    12 # row to column delay
RAS                                    28 # time needed to activate row
RP                                     12 # time needed to precharge (deactivate) row
RC                                     40 # row cycle time
CDLR                                    5 # switching from write to read (changes tWTR)
WR                                     12 # last data-in to row precharge
CL                                     12 # CAS latency
WL                                      4 # Write latency
nbkgrp                                  4 # number of bank groups
CCDL                                    3 # column to column delay between accesses to different bank groups
RTPL                                    2 # read to precharge delay between accesses to different bank groups
Total number of memory sub partition = 12
addr_dec_mask[CHIP]  = 0000000000000000 	high:64 low:0
addr_dec_mask[BK]    = 000000000000e100 	high:16 low:8
addr_dec_mask[ROW]   = 000000000fff0000 	high:28 low:16
addr_dec_mask[COL]   = 0000000000001eff 	high:13 low:0
addr_dec_mask[BURST] = 000000000000003f 	high:6 low:0
sub_partition_id_mask = 0000000000000100
GPGPU-Sim uArch: clock freqs: 700000000.000000:700000000.000000:700000000.000000:924000000.000000
GPGPU-Sim uArch: clock periods: 0.00000000142857142857:0.00000000142857142857:0.00000000142857142857:0.00000000108225108225
*** Initializing Memory Statistics ***
GPGPU-Sim uArch: interconnect node map (shaderID+MemID to icntID)
GPGPU-Sim uArch: Memory nodes ID start from index: 15
GPGPU-Sim uArch:    0   1   2   3   4
GPGPU-Sim uArch:    5   6   7   8   9
GPGPU-Sim uArch:   10  11  12  13  14
GPGPU-Sim uArch:   15  16  17  18  19
GPGPU-Sim uArch:   20  21  22  23  24
GPGPU-Sim uArch:   25  26
GPGPU-Sim uArch: interconnect node reverse map (icntID to shaderID+MemID)
GPGPU-Sim uArch: Memory nodes start from ID: 15
GPGPU-Sim uArch:    0   1   2   3   4
GPGPU-Sim uArch:    5   6   7   8   9
GPGPU-Sim uArch:   10  11  12  13  14
GPGPU-Sim uArch:   15  16  17  18  19
GPGPU-Sim uArch:   20  21  22  23  24
GPGPU-Sim uArch:   25  26
435525749f501211bc37f180010eb43f  /code/rodinia/HS/hotspot-rodinia-3.1
Extracting PTX file and ptxas options    1: hotspot-rodinia-3.1.sm_30.ptx -arch=sm_30
Extracting PTX file and ptxas options    2: hotspot-rodinia-3.2.sm_35.ptx -arch=sm_35
Extracting PTX file and ptxas options    3: hotspot-rodinia-3.3.sm_50.ptx -arch=sm_50
Extracting PTX file and ptxas options    4: hotspot-rodinia-3.4.sm_60.ptx -arch=sm_60
Extracting PTX file and ptxas options    5: hotspot-rodinia-3.5.sm_62.ptx -arch=sm_62
GPGPU-Sim uArch: performance model initialization complete.
self exe links to: /code/rodinia/HS/hotspot-rodinia-3.1
self exe links to: /code/rodinia/HS/hotspot-rodinia-3.1
10.1
GPGPU-Sim PTX: __cudaRegisterFatBinary, fat_cubin_handle = 1, filename=default
self exe links to: /code/rodinia/HS/hotspot-rodinia-3.1
Running md5sum using "md5sum /code/rodinia/HS/hotspot-rodinia-3.1 "
self exe links to: /code/rodinia/HS/hotspot-rodinia-3.1
Extracting specific PTX file named hotspot-rodinia-3.1.sm_30.ptx 
Extracting specific PTX file named hotspot-rodinia-3.2.sm_35.ptx 
Extracting specific PTX file named hotspot-rodinia-3.3.sm_50.ptx 
Extracting specific PTX file named hotspot-rodinia-3.4.sm_60.ptx 
Extracting specific PTX file named hotspot-rodinia-3.5.sm_62.ptx 
GPGPU-Sim PTX: __cudaRegisterFunction _Z14calculate_tempiPfS_S_iiiiffffff : hostFun 0x0x401380, fat_cubin_handle = 1
GPGPU-Sim PTX: Parsing hotspot-rodinia-3.1.sm_30.ptx
GPGPU-Sim PTX: allocating shared region for "_ZZ14calculate_tempiPfS_S_iiiiffffffE12temp_on_cuda" from 0x0 to 0x400 (shared memory space)
GPGPU-Sim PTX: allocating shared region for "_ZZ14calculate_tempiPfS_S_iiiiffffffE13power_on_cuda" from 0x400 to 0x800 (shared memory space)
GPGPU-Sim PTX: allocating shared region for "_ZZ14calculate_tempiPfS_S_iiiiffffffE6temp_t" from 0x800 to 0xc00 (shared memory space)
GPGPU-Sim PTX: instruction assembly for function '_Z14calculate_tempiPfS_S_iiiiffffff'...   done.
GPGPU-Sim PTX: finished parsing EMBEDDED .ptx file hotspot-rodinia-3.1.sm_30.ptx
GPGPU-Sim PTX: Parsing hotspot-rodinia-3.2.sm_35.ptx
GPGPU-Sim PTX: Warning %p0 was declared previous at hotspot-rodinia-3.1.sm_30.ptx:35 skipping new declaration
GPGPU-Sim PTX: Warning %p1 was declared previous at hotspot-rodinia-3.1.sm_30.ptx:35 skipping new declaration
GPGPU-Sim PTX: Warning %p2 was declared previous at hotspot-rodinia-3.1.sm_30.ptx:35 skipping new declaration
GPGPU-Sim PTX: Warning %p3 was declared previous at hotspot-rodinia-3.1.sm_30.ptx:35 skipping new declaration
GPGPU-Sim PTX: Warning %p4 was declared previous at hotspot-rodinia-3.1.sm_30.ptx:35 skipping new declaration
GPGPU-Sim PTX: Warning %p5 was declared previous at hotspot-rodinia-3.1.sm_30.ptx:35 skipping new declaration
GPGPU-Sim PTX: Warning %p6 was declared previous at hotspot-rodinia-3.1.sm_30.ptx:35 skipping new declaration
GPGPU-Sim PTX: Warning %p7 was declared previous at hotspot-rodinia-3.1.sm_30.ptx:35 skipping new declaration
GPGPU-Sim PTX: Warning %p8 was declared previous at hotspot-rodinia-3.1.sm_30.ptx:35 skipping new declaration
GPGPU-Sim PTX: Warning %p9 was declared previous at hotspot-rodinia-3.1.sm_30.ptx:35 skipping new declaration
GPGPU-Sim PTX: Warning %p10 was declared previous at hotspot-rodinia-3.1.sm_30.ptx:35 skipping new declaration
GPGPU-Sim PTX: Warning %p11 was declared previous at hotspot-rodinia-3.1.sm_30.ptx:35 skipping new declaration
GPGPU-Sim PTX: Warning %p12 was declared previous at hotspot-rodinia-3.1.sm_30.ptx:35 skipping new declaration
GPGPU-Sim PTX: Warning %p13 was declared previous at hotspot-rodinia-3.1.sm_30.ptx:35 skipping new declaration
GPGPU-Sim PTX: Warning %p14 was declared previous at hotspot-rodinia-3.1.sm_30.ptx:35 skipping new declaration
GPGPU-Sim PTX: Warning %p15 was declared previous at hotspot-rodinia-3.1.sm_30.ptx:35 skipping new declaration
GPGPU-Sim PTX: Warning %p16 was declared previous at hotspot-rodinia-3.1.sm_30.ptx:35 skipping new declaration
GPGPU-Sim PTX: Warning %p17 was declared previous at hotspot-rodinia-3.1.sm_30.ptx:35 skipping new declaration
GPGPU-Sim PTX: Warning %p18 was declared previous at hotspot-rodinia-3.1.sm_30.ptx:35 skipping new declaration
GPGPU-Sim PTX: Warning %p19 was declared previous at hotspot-rodinia-3.1.sm_30.ptx:35 skipping new declaration
GPGPU-Sim PTX: Warning %p20 was declared previous at hotspot-rodinia-3.1.sm_30.ptx:35 skipping new declaration
GPGPU-Sim PTX: Warning %p21 was declared previous at hotspot-rodinia-3.1.sm_30.ptx:35 skipping new declaration
GPGPU-Sim PTX: Warning %p22 was declared previous at hotspot-rodinia-3.1.sm_30.ptx:35 skipping new declaration
GPGPU-Sim PTX: Warning %p23 was declared previous at hotspot-rodinia-3.1.sm_30.ptx:35 skipping new declaration
GPGPU-Sim PTX: Warning %p24 was declared previous at hotspot-rodinia-3.1.sm_30.ptx:35 skipping new declaration
GPGPU-Sim PTX: Warning %p25 was declared previous at hotspot-rodinia-3.1.sm_30.ptx:35 skipping new declaration
GPGPU-Sim PTX: Warning %p26 was declared previous at hotspot-rodinia-3.1.sm_30.ptx:35 skipping new declaration
GPGPU-Sim PTX: Warning %p27 was declared previous at hotspot-rodinia-3.1.sm_30.ptx:35 skipping new declaration
GPGPU-Sim PTX: Warning %p28 was declared previous at hotspot-rodinia-3.1.sm_30.ptx:35 skipping new declaration
GPGPU-Sim PTX: Warning %p29 was declared previous at hotspot-rodinia-3.1.sm_30.ptx:35 skipping new declaration
GPGPU-Sim PTX: Warning %p30 was declared previous at hotspot-rodinia-3.1.sm_30.ptx:35 skipping new declaration
GPGPU-Sim PTX: Warning %rs0 was declared previous at hotspot-rodinia-3.1.sm_30.ptx:36 skipping new declaration
GPGPU-Sim PTX: Warning %rs1 was declared previous at hotspot-rodinia-3.1.sm_30.ptx:36 skipping new declaration
GPGPU-Sim PTX: Warning %rs2 was declared previous at hotspot-rodinia-3.1.sm_30.ptx:36 skipping new declaration
GPGPU-Sim PTX: Warning %rs3 was declared previous at hotspot-rodinia-3.1.sm_30.ptx:36 skipping new declaration
GPGPU-Sim PTX: Warning %rs4 was declared previous at hotspot-rodinia-3.1.sm_30.ptx:36 skipping new declaration
GPGPU-Sim PTX: Warning %rs5 was declared previous at hotspot-rodinia-3.1.sm_30.ptx:36 skipping new declaration
GPGPU-Sim PTX: Warning %rs6 was declared previous at hotspot-rodinia-3.1.sm_30.ptx:36 skipping new declaration
GPGPU-Sim PTX: Warning %rs7 was declared previous at hotspot-rodinia-3.1.sm_30.ptx:36 skipping new declaration
GPGPU-Sim PTX: Warning %rs8 was declared previous at hotspot-rodinia-3.1.sm_30.ptx:36 skipping new declaration
GPGPU-Sim PTX: Warning %rs9 was declared previous at hotspot-rodinia-3.1.sm_30.ptx:36 skipping new declaration
GPGPU-Sim PTX: Warning %f0 was declared previous at hotspot-rodinia-3.1.sm_30.ptx:37 skipping new declaration
GPGPU-Sim PTX: Warning %f1 was declared previous at hotspot-rodinia-3.1.sm_30.ptx:37 skipping new declaration
GPGPU-Sim PTX: Warning %f2 was declared previous at hotspot-rodinia-3.1.sm_30.ptx:37 skipping new declaration
GPGPU-Sim PTX: Warning %f3 was declared previous at hotspot-rodinia-3.1.sm_30.ptx:37 skipping new declaration
GPGPU-Sim PTX: Warning %f4 was declared previous at hotspot-rodinia-3.1.sm_30.ptx:37 skipping new declaration
GPGPU-Sim PTX: Warning %f5 was declared previous at hotspot-rodinia-3.1.sm_30.ptx:37 skipping new declaration
GPGPU-Sim PTX: Warning %f6 was declared previous at hotspot-rodinia-3.1.sm_30.ptx:37 skipping new declaration
GPGPU-Sim PTX: Warning %f7 was declared previous at hotspot-rodinia-3.1.sm_30.ptx:37 skipping new declaration
GPGPU-Sim PTX: Warning %f8 was declared previous at hotspot-rodinia-3.1.sm_30.ptx:37 skipping new declaration
GPGPU-Sim PTX: Warning %f9 was declared previous at hotspot-rodinia-3.1.sm_30.ptx:37 skipping new declaration
GPGPU-Sim PTX: Warning %f10 was declared previous at hotspot-rodinia-3.1.sm_30.ptx:37 skipping new declaration
GPGPU-Sim PTX: Warning %f11 was declared previous at hotspot-rodinia-3.1.sm_30.ptx:37 skipping new declaration
GPGPU-Sim PTX: Warning %f12 was declared previous at hotspot-rodinia-3.1.sm_30.ptx:37 skipping new declaration
GPGPU-Sim PTX: Warning %f13 was declared previous at hotspot-rodinia-3.1.sm_30.ptx:37 skipping new declaration
GPGPU-Sim PTX: Warning %f14 was declared previous at hotspot-rodinia-3.1.sm_30.ptx:37 skipping new declaration
GPGPU-Sim PTX: Warning %f15 was declared previous at hotspot-rodinia-3.1.sm_30.ptx:37 skipping new declaration
GPGPU-Sim PTX: Warning %f16 was declared previous at hotspot-rodinia-3.1.sm_30.ptx:37 skipping new declaration
GPGPU-Sim PTX: Warning %f17 was declared previous at hotspot-rodinia-3.1.sm_30.ptx:37 skipping new declaration
GPGPU-Sim PTX: Warning %f18 was declared previous at hotspot-rodinia-3.1.sm_30.ptx:37 skipping new declaration
GPGPU-Sim PTX: Warning %f19 was declared previous at hotspot-rodinia-3.1.sm_30.ptx:37 skipping new declaration
GPGPU-Sim PTX: Warning %f20 was declared previous at hotspot-rodinia-3.1.sm_30.ptx:37 skipping new declaration
GPGPU-Sim PTX: Warning %f21 was declared previous at hotspot-rodinia-3.1.sm_30.ptx:37 skipping new declaration
GPGPU-Sim PTX: Warning %f22 was declared previous at hotspot-rodinia-3.1.sm_30.ptx:37 skipping new declaration
GPGPU-Sim PTX: Warning %f23 was declared previous at hotspot-rodinia-3.1.sm_30.ptx:37 skipping new declaration
GPGPU-Sim PTX: Warning %f24 was declared previous at hotspot-rodinia-3.1.sm_30.ptx:37 skipping new declaration
GPGPU-Sim PTX: Warning %f25 was declared previous at hotspot-rodinia-3.1.sm_30.ptx:37 skipping new declaration
GPGPU-Sim PTX: Warning %r0 was declared previous at hotspot-rodinia-3.1.sm_30.ptx:38 skipping new declaration
GPGPU-Sim PTX: Warning %r1 was declared previous at hotspot-rodinia-3.1.sm_30.ptx:38 skipping new declaration
GPGPU-Sim PTX: Warning %r2 was declared previous at hotspot-rodinia-3.1.sm_30.ptx:38 skipping new declaration
GPGPU-Sim PTX: Warning %r3 was declared previous at hotspot-rodinia-3.1.sm_30.ptx:38 skipping new declaration
GPGPU-Sim PTX: Warning %r4 was declared previous at hotspot-rodinia-3.1.sm_30.ptx:38 skipping new declaration
GPGPU-Sim PTX: Warning %r5 was declared previous at hotspot-rodinia-3.1.sm_30.ptx:38 skipping new declaration
GPGPU-Sim PTX: Warning %r6 was declared previous at hotspot-rodinia-3.1.sm_30.ptx:38 skipping new declaration
GPGPU-Sim PTX: Warning %r7 was declared previous at hotspot-rodinia-3.1.sm_30.ptx:38 skipping new declaration
GPGPU-Sim PTX: Warning %r8 was declared previous at hotspot-rodinia-3.1.sm_30.ptx:38 skipping new declaration
GPGPU-Sim PTX: Warning %r9 was declared previous at hotspot-rodinia-3.1.sm_30.ptx:38 skipping new declaration
GPGPU-Sim PTX: Warning %r10 was declared previous at hotspot-rodinia-3.1.sm_30.ptx:38 skipping new declaration
GPGPU-Sim PTX: Warning %r11 was declared previous at hotspot-rodinia-3.1.sm_30.ptx:38 skipping new declaration
GPGPU-Sim PTX: Warning %r12 was declared previous at hotspot-rodinia-3.1.sm_30.ptx:38 skipping new declaration
GPGPU-Sim PTX: Warning %r13 was declared previous at hotspot-rodinia-3.1.sm_30.ptx:38 skipping new declaration
GPGPU-Sim PTX: Warning %r14 was declared previous at hotspot-rodinia-3.1.sm_30.ptx:38 skipping new declaration
GPGPU-Sim PTX: Warning %r15 was declared previous at hotspot-rodinia-3.1.sm_30.ptx:38 skipping new declaration
GPGPU-Sim PTX: Warning %r16 was declared previous at hotspot-rodinia-3.1.sm_30.ptx:38 skipping new declaration
GPGPU-Sim PTX: Warning %r17 was declared previous at hotspot-rodinia-3.1.sm_30.ptx:38 skipping new declaration
GPGPU-Sim PTX: Warning %r18 was declared previous at hotspot-rodinia-3.1.sm_30.ptx:38 skipping new declaration
GPGPU-Sim PTX: Warning %r19 was declared previous at hotspot-rodinia-3.1.sm_30.ptx:38 skipping new declaration
GPGPU-Sim PTX: Warning %r20 was declared previous at hotspot-rodinia-3.1.sm_30.ptx:38 skipping new declaration
GPGPU-Sim PTX: Warning %r21 was declared previous at hotspot-rodinia-3.1.sm_30.ptx:38 skipping new declaration
GPGPU-Sim PTX: Warning %r22 was declared previous at hotspot-rodinia-3.1.sm_30.ptx:38 skipping new declaration
GPGPU-Sim PTX: Warning %r23 was declared previous at hotspot-rodinia-3.1.sm_30.ptx:38 skipping new declaration
GPGPU-Sim PTX: Warning %r24 was declared previous at hotspot-rodinia-3.1.sm_30.ptx:38 skipping new declaration
GPGPU-Sim PTX: Warning %r25 was declared previous at hotspot-rodinia-3.1.sm_30.ptx:38 skipping new declaration
GPGPU-Sim PTX: Warning %r26 was declared previous at hotspot-rodinia-3.1.sm_30.ptx:38 skipping new declaration
GPGPU-Sim PTX: Warning %r27 was declared previous at hotspot-rodinia-3.1.sm_30.ptx:38 skipping new declaration
GPGPU-Sim PTX: Warning %r28 was declared previous at hotspot-rodinia-3.1.sm_30.ptx:38 skipping new declaration
GPGPU-Sim PTX: Warning %r29 was declared previous at hotspot-rodinia-3.1.sm_30.ptx:38 skipping new declaration
GPGPU-Sim PTX: Warning %r30 was declared previous at hotspot-rodinia-3.1.sm_30.ptx:38 skipping new declaration
GPGPU-Sim PTX: Warning %r31 was declared previous at hotspot-rodinia-3.1.sm_30.ptx:38 skipping new declaration
GPGPU-Sim PTX: Warning %r32 was declared previous at hotspot-rodinia-3.1.sm_30.ptx:38 skipping new declaration
GPGPU-Sim PTX: Warning %r33 was declared previous at hotspot-rodinia-3.1.sm_30.ptx:38 skipping new declaration
GPGPU-Sim PTX: Warning %r34 was declared previous at hotspot-rodinia-3.1.sm_30.ptx:38 skipping new declaration
GPGPU-Sim PTX: Warning %r35 was declared previous at hotspot-rodinia-3.1.sm_30.ptx:38 skipping new declaration
GPGPU-Sim PTX: Warning %r36 was declared previous at hotspot-rodinia-3.1.sm_30.ptx:38 skipping new declaration
GPGPU-Sim PTX: Warning %r37 was declared previous at hotspot-rodinia-3.1.sm_30.ptx:38 skipping new declaration
GPGPU-Sim PTX: Warning %r38 was declared previous at hotspot-rodinia-3.1.sm_30.ptx:38 skipping new declaration
GPGPU-Sim PTX: Warning %r39 was declared previous at hotspot-rodinia-3.1.sm_30.ptx:38 skipping new declaration
GPGPU-Sim PTX: Warning %r40 was declared previous at hotspot-rodinia-3.1.sm_30.ptx:38 skipping new declaration
GPGPU-Sim PTX: Warning %r41 was declared previous at hotspot-rodinia-3.1.sm_30.ptx:38 skipping new declaration
GPGPU-Sim PTX: Warning %r42 was declared previous at hotspot-rodinia-3.1.sm_30.ptx:38 skipping new declaration
GPGPU-Sim PTX: Warning %r43 was declared previous at hotspot-rodinia-3.1.sm_30.ptx:38 skipping new declaration
GPGPU-Sim PTX: Warning %r44 was declared previous at hotspot-rodinia-3.1.sm_30.ptx:38 skipping new declaration
GPGPU-Sim PTX: Warning %r45 was declared previous at hotspot-rodinia-3.1.sm_30.ptx:38 skipping new declaration
GPGPU-Sim PTX: Warning %r46 was declared previous at hotspot-rodinia-3.1.sm_30.ptx:38 skipping new declaration
GPGPU-Sim PTX: Warning %r47 was declared previous at hotspot-rodinia-3.1.sm_30.ptx:38 skipping new declaration
GPGPU-Sim PTX: Warning %r48 was declared previous at hotspot-rodinia-3.1.sm_30.ptx:38 skipping new declaration
GPGPU-Sim PTX: Warning %r49 was declared previous at hotspot-rodinia-3.1.sm_30.ptx:38 skipping new declaration
GPGPU-Sim PTX: Warning %r50 was declared previous at hotspot-rodinia-3.1.sm_30.ptx:38 skipping new declaration
GPGPU-Sim PTX: Warning %r51 was declared previous at hotspot-rodinia-3.1.sm_30.ptx:38 skipping new declaration
GPGPU-Sim PTX: Warning %r52 was declared previous at hotspot-rodinia-3.1.sm_30.ptx:38 skipping new declaration
GPGPU-Sim PTX: Warning %r53 was declared previous at hotspot-rodinia-3.1.sm_30.ptx:38 skipping new declaration
GPGPU-Sim PTX: Warning %r54 was declared previous at hotspot-rodinia-3.1.sm_30.ptx:38 skipping new declaration
GPGPU-Sim PTX: Warning %r55 was declared previous at hotspot-rodinia-3.1.sm_30.ptx:38 skipping new declaration
GPGPU-Sim PTX: Warning %r56 was declared previous at hotspot-rodinia-3.1.sm_30.ptx:38 skipping new declaration
GPGPU-Sim PTX: Warning %r57 was declared previous at hotspot-rodinia-3.1.sm_30.ptx:38 skipping new declaration
GPGPU-Sim PTX: Warning %r58 was declared previous at hotspot-rodinia-3.1.sm_30.ptx:38 skipping new declaration
GPGPU-Sim PTX: Warning %r59 was declared previous at hotspot-rodinia-3.1.sm_30.ptx:38 skipping new declaration
GPGPU-Sim PTX: Warning %r60 was declared previous at hotspot-rodinia-3.1.sm_30.ptx:38 skipping new declaration
GPGPU-Sim PTX: Warning %r61 was declared previous at hotspot-rodinia-3.1.sm_30.ptx:38 skipping new declaration
GPGPU-Sim PTX: Warning %r62 was declared previous at hotspot-rodinia-3.1.sm_30.ptx:38 skipping new declaration
GPGPU-Sim PTX: Warning %r63 was declared previous at hotspot-rodinia-3.1.sm_30.ptx:38 skipping new declaration
GPGPU-Sim PTX: Warning %r64 was declared previous at hotspot-rodinia-3.1.sm_30.ptx:38 skipping new declaration
GPGPU-Sim PTX: Warning %r65 was declared previous at hotspot-rodinia-3.1.sm_30.ptx:38 skipping new declaration
GPGPU-Sim PTX: Warning %r66 was declared previous at hotspot-rodinia-3.1.sm_30.ptx:38 skipping new declaration
GPGPU-Sim PTX: Warning %r67 was declared previous at hotspot-rodinia-3.1.sm_30.ptx:38 skipping new declaration
GPGPU-Sim PTX: Warning %r68 was declared previous at hotspot-rodinia-3.1.sm_30.ptx:38 skipping new declaration
GPGPU-Sim PTX: Warning %r69 was declared previous at hotspot-rodinia-3.1.sm_30.ptx:38 skipping new declaration
GPGPU-Sim PTX: Warning %r70 was declared previous at hotspot-rodinia-3.1.sm_30.ptx:38 skipping new declaration
GPGPU-Sim PTX: Warning %r71 was declared previous at hotspot-rodinia-3.1.sm_30.ptx:38 skipping new declaration
GPGPU-Sim PTX: Warning %r72 was declared previous at hotspot-rodinia-3.1.sm_30.ptx:38 skipping new declaration
GPGPU-Sim PTX: Warning %r73 was declared previous at hotspot-rodinia-3.1.sm_30.ptx:38 skipping new declaration
GPGPU-Sim PTX: Warning %r74 was declared previous at hotspot-rodinia-3.1.sm_30.ptx:38 skipping new declaration
GPGPU-Sim PTX: Warning %r75 was declared previous at hotspot-rodinia-3.1.sm_30.ptx:38 skipping new declaration
GPGPU-Sim PTX: Warning %r76 was declared previous at hotspot-rodinia-3.1.sm_30.ptx:38 skipping new declaration
GPGPU-Sim PTX: Warning %r77 was declared previous at hotspot-rodinia-3.1.sm_30.ptx:38 skipping new declaration
GPGPU-Sim PTX: Warning %r78 was declared previous at hotspot-rodinia-3.1.sm_30.ptx:38 skipping new declaration
GPGPU-Sim PTX: Warning %r79 was declared previous at hotspot-rodinia-3.1.sm_30.ptx:38 skipping new declaration
GPGPU-Sim PTX: Warning %r80 was declared previous at hotspot-rodinia-3.1.sm_30.ptx:38 skipping new declaration
GPGPU-Sim PTX: Warning %r81 was declared previous at hotspot-rodinia-3.1.sm_30.ptx:38 skipping new declaration
GPGPU-Sim PTX: Warning %r82 was declared previous at hotspot-rodinia-3.1.sm_30.ptx:38 skipping new declaration
GPGPU-Sim PTX: Warning %r83 was declared previous at hotspot-rodinia-3.1.sm_30.ptx:38 skipping new declaration
GPGPU-Sim PTX: Warning %r84 was declared previous at hotspot-rodinia-3.1.sm_30.ptx:38 skipping new declaration
GPGPU-Sim PTX: Warning %fd0 was declared previous at hotspot-rodinia-3.1.sm_30.ptx:39 skipping new declaration
GPGPU-Sim PTX: Warning %fd1 was declared previous at hotspot-rodinia-3.1.sm_30.ptx:39 skipping new declaration
GPGPU-Sim PTX: Warning %fd2 was declared previous at hotspot-rodinia-3.1.sm_30.ptx:39 skipping new declaration
GPGPU-Sim PTX: Warning %fd3 was declared previous at hotspot-rodinia-3.1.sm_30.ptx:39 skipping new declaration
GPGPU-Sim PTX: Warning %fd4 was declared previous at hotspot-rodinia-3.1.sm_30.ptx:39 skipping new declaration
GPGPU-Sim PTX: Warning %fd5 was declared previous at hotspot-rodinia-3.1.sm_30.ptx:39 skipping new declaration
GPGPU-Sim PTX: Warning %fd6 was declared previous at hotspot-rodinia-3.1.sm_30.ptx:39 skipping new declaration
GPGPU-Sim PTX: Warning %fd7 was declared previous at hotspot-rodinia-3.1.sm_30.ptx:39 skipping new declaration
GPGPU-Sim PTX: Warning %fd8 was declared previous at hotspot-rodinia-3.1.sm_30.ptx:39 skipping new declaration
GPGPU-Sim PTX: Warning %fd9 was declared previous at hotspot-rodinia-3.1.sm_30.ptx:39 skipping new declaration
GPGPU-Sim PTX: Warning %fd10 was declared previous at hotspot-rodinia-3.1.sm_30.ptx:39 skipping new declaration
GPGPU-Sim PTX: Warning %fd11 was declared previous at hotspot-rodinia-3.1.sm_30.ptx:39 skipping new declaration
GPGPU-Sim PTX: Warning %fd12 was declared previous at hotspot-rodinia-3.1.sm_30.ptx:39 skipping new declaration
GPGPU-Sim PTX: Warning %fd13 was declared previous at hotspot-rodinia-3.1.sm_30.ptx:39 skipping new declaration
GPGPU-Sim PTX: Warning %fd14 was declared previous at hotspot-rodinia-3.1.sm_30.ptx:39 skipping new declaration
GPGPU-Sim PTX: Warning %fd15 was declared previous at hotspot-rodinia-3.1.sm_30.ptx:39 skipping new declaration
GPGPU-Sim PTX: Warning %rd0 was declared previous at hotspot-rodinia-3.1.sm_30.ptx:40 skipping new declaration
GPGPU-Sim PTX: Warning %rd1 was declared previous at hotspot-rodinia-3.1.sm_30.ptx:40 skipping new declaration
GPGPU-Sim PTX: Warning %rd2 was declared previous at hotspot-rodinia-3.1.sm_30.ptx:40 skipping new declaration
GPGPU-Sim PTX: Warning %rd3 was declared previous at hotspot-rodinia-3.1.sm_30.ptx:40 skipping new declaration
GPGPU-Sim PTX: Warning %rd4 was declared previous at hotspot-rodinia-3.1.sm_30.ptx:40 skipping new declaration
GPGPU-Sim PTX: Warning %rd5 was declared previous at hotspot-rodinia-3.1.sm_30.ptx:40 skipping new declaration
GPGPU-Sim PTX: Warning %rd6 was declared previous at hotspot-rodinia-3.1.sm_30.ptx:40 skipping new declaration
GPGPU-Sim PTX: Warning %rd7 was declared previous at hotspot-rodinia-3.1.sm_30.ptx:40 skipping new declaration
GPGPU-Sim PTX: Warning %rd8 was declared previous at hotspot-rodinia-3.1.sm_30.ptx:40 skipping new declaration
GPGPU-Sim PTX: Warning %rd9 was declared previous at hotspot-rodinia-3.1.sm_30.ptx:40 skipping new declaration
GPGPU-Sim PTX: Warning %rd10 was declared previous at hotspot-rodinia-3.1.sm_30.ptx:40 skipping new declaration
GPGPU-Sim PTX: Warning %rd11 was declared previous at hotspot-rodinia-3.1.sm_30.ptx:40 skipping new declaration
GPGPU-Sim PTX: Warning _ZZ14calculate_tempiPfS_S_iiiiffffffE12temp_on_cuda was declared previous at hotspot-rodinia-3.1.sm_30.ptx:42 skipping new declaration
GPGPU-Sim PTX: Warning _ZZ14calculate_tempiPfS_S_iiiiffffffE13power_on_cuda was declared previous at hotspot-rodinia-3.1.sm_30.ptx:44 skipping new declaration
GPGPU-Sim PTX: Warning _ZZ14calculate_tempiPfS_S_iiiiffffffE6temp_t was declared previous at hotspot-rodinia-3.1.sm_30.ptx:46 skipping new declaration
GPGPU-Sim PTX: instruction assembly for function '_Z14calculate_tempiPfS_S_iiiiffffff'...   done.
GPGPU-Sim PTX: finished parsing EMBEDDED .ptx file hotspot-rodinia-3.2.sm_35.ptx
GPGPU-Sim PTX: Parsing hotspot-rodinia-3.3.sm_50.ptx
GPGPU-Sim PTX: Warning %p0 was declared previous at hotspot-rodinia-3.1.sm_30.ptx:35 skipping new declaration
GPGPU-Sim PTX: Warning %p1 was declared previous at hotspot-rodinia-3.1.sm_30.ptx:35 skipping new declaration
GPGPU-Sim PTX: Warning %p2 was declared previous at hotspot-rodinia-3.1.sm_30.ptx:35 skipping new declaration
GPGPU-Sim PTX: Warning %p3 was declared previous at hotspot-rodinia-3.1.sm_30.ptx:35 skipping new declaration
GPGPU-Sim PTX: Warning %p4 was declared previous at hotspot-rodinia-3.1.sm_30.ptx:35 skipping new declaration
GPGPU-Sim PTX: Warning %p5 was declared previous at hotspot-rodinia-3.1.sm_30.ptx:35 skipping new declaration
GPGPU-Sim PTX: Warning %p6 was declared previous at hotspot-rodinia-3.1.sm_30.ptx:35 skipping new declaration
GPGPU-Sim PTX: Warning %p7 was declared previous at hotspot-rodinia-3.1.sm_30.ptx:35 skipping new declaration
GPGPU-Sim PTX: Warning %p8 was declared previous at hotspot-rodinia-3.1.sm_30.ptx:35 skipping new declaration
GPGPU-Sim PTX: Warning %p9 was declared previous at hotspot-rodinia-3.1.sm_30.ptx:35 skipping new declaration
GPGPU-Sim PTX: Warning %p10 was declared previous at hotspot-rodinia-3.1.sm_30.ptx:35 skipping new declaration
GPGPU-Sim PTX: Warning %p11 was declared previous at hotspot-rodinia-3.1.sm_30.ptx:35 skipping new declaration
GPGPU-Sim PTX: Warning %p12 was declared previous at hotspot-rodinia-3.1.sm_30.ptx:35 skipping new declaration
GPGPU-Sim PTX: Warning %p13 was declared previous at hotspot-rodinia-3.1.sm_30.ptx:35 skipping new declaration
GPGPU-Sim PTX: Warning %p14 was declared previous at hotspot-rodinia-3.1.sm_30.ptx:35 skipping new declaration
GPGPU-Sim PTX: Warning %p15 was declared previous at hotspot-rodinia-3.1.sm_30.ptx:35 skipping new declaration
GPGPU-Sim PTX: Warning %p16 was declared previous at hotspot-rodinia-3.1.sm_30.ptx:35 skipping new declaration
GPGPU-Sim PTX: Warning %p17 was declared previous at hotspot-rodinia-3.1.sm_30.ptx:35 skipping new declaration
GPGPU-Sim PTX: Warning %p18 was declared previous at hotspot-rodinia-3.1.sm_30.ptx:35 skipping new declaration
GPGPU-Sim PTX: Warning %p19 was declared previous at hotspot-rodinia-3.1.sm_30.ptx:35 skipping new declaration
GPGPU-Sim PTX: Warning %p20 was declared previous at hotspot-rodinia-3.1.sm_30.ptx:35 skipping new declaration
GPGPU-Sim PTX: Warning %p21 was declared previous at hotspot-rodinia-3.1.sm_30.ptx:35 skipping new declaration
GPGPU-Sim PTX: Warning %p22 was declared previous at hotspot-rodinia-3.1.sm_30.ptx:35 skipping new declaration
GPGPU-Sim PTX: Warning %p23 was declared previous at hotspot-rodinia-3.1.sm_30.ptx:35 skipping new declaration
GPGPU-Sim PTX: Warning %p24 was declared previous at hotspot-rodinia-3.1.sm_30.ptx:35 skipping new declaration
GPGPU-Sim PTX: Warning %p25 was declared previous at hotspot-rodinia-3.1.sm_30.ptx:35 skipping new declaration
GPGPU-Sim PTX: Warning %p26 was declared previous at hotspot-rodinia-3.1.sm_30.ptx:35 skipping new declaration
GPGPU-Sim PTX: Warning %p27 was declared previous at hotspot-rodinia-3.1.sm_30.ptx:35 skipping new declaration
GPGPU-Sim PTX: Warning %p28 was declared previous at hotspot-rodinia-3.1.sm_30.ptx:35 skipping new declaration
GPGPU-Sim PTX: Warning %p29 was declared previous at hotspot-rodinia-3.1.sm_30.ptx:35 skipping new declaration
GPGPU-Sim PTX: Warning %p30 was declared previous at hotspot-rodinia-3.1.sm_30.ptx:35 skipping new declaration
GPGPU-Sim PTX: Warning %rs0 was declared previous at hotspot-rodinia-3.1.sm_30.ptx:36 skipping new declaration
GPGPU-Sim PTX: Warning %rs1 was declared previous at hotspot-rodinia-3.1.sm_30.ptx:36 skipping new declaration
GPGPU-Sim PTX: Warning %rs2 was declared previous at hotspot-rodinia-3.1.sm_30.ptx:36 skipping new declaration
GPGPU-Sim PTX: Warning %rs3 was declared previous at hotspot-rodinia-3.1.sm_30.ptx:36 skipping new declaration
GPGPU-Sim PTX: Warning %rs4 was declared previous at hotspot-rodinia-3.1.sm_30.ptx:36 skipping new declaration
GPGPU-Sim PTX: Warning %rs5 was declared previous at hotspot-rodinia-3.1.sm_30.ptx:36 skipping new declaration
GPGPU-Sim PTX: Warning %rs6 was declared previous at hotspot-rodinia-3.1.sm_30.ptx:36 skipping new declaration
GPGPU-Sim PTX: Warning %rs7 was declared previous at hotspot-rodinia-3.1.sm_30.ptx:36 skipping new declaration
GPGPU-Sim PTX: Warning %rs8 was declared previous at hotspot-rodinia-3.1.sm_30.ptx:36 skipping new declaration
GPGPU-Sim PTX: Warning %rs9 was declared previous at hotspot-rodinia-3.1.sm_30.ptx:36 skipping new declaration
GPGPU-Sim PTX: Warning %f0 was declared previous at hotspot-rodinia-3.1.sm_30.ptx:37 skipping new declaration
GPGPU-Sim PTX: Warning %f1 was declared previous at hotspot-rodinia-3.1.sm_30.ptx:37 skipping new declaration
GPGPU-Sim PTX: Warning %f2 was declared previous at hotspot-rodinia-3.1.sm_30.ptx:37 skipping new declaration
GPGPU-Sim PTX: Warning %f3 was declared previous at hotspot-rodinia-3.1.sm_30.ptx:37 skipping new declaration
GPGPU-Sim PTX: Warning %f4 was declared previous at hotspot-rodinia-3.1.sm_30.ptx:37 skipping new declaration
GPGPU-Sim PTX: Warning %f5 was declared previous at hotspot-rodinia-3.1.sm_30.ptx:37 skipping new declaration
GPGPU-Sim PTX: Warning %f6 was declared previous at hotspot-rodinia-3.1.sm_30.ptx:37 skipping new declaration
GPGPU-Sim PTX: Warning %f7 was declared previous at hotspot-rodinia-3.1.sm_30.ptx:37 skipping new declaration
GPGPU-Sim PTX: Warning %f8 was declared previous at hotspot-rodinia-3.1.sm_30.ptx:37 skipping new declaration
GPGPU-Sim PTX: Warning %f9 was declared previous at hotspot-rodinia-3.1.sm_30.ptx:37 skipping new declaration
GPGPU-Sim PTX: Warning %f10 was declared previous at hotspot-rodinia-3.1.sm_30.ptx:37 skipping new declaration
GPGPU-Sim PTX: Warning %f11 was declared previous at hotspot-rodinia-3.1.sm_30.ptx:37 skipping new declaration
GPGPU-Sim PTX: Warning %f12 was declared previous at hotspot-rodinia-3.1.sm_30.ptx:37 skipping new declaration
GPGPU-Sim PTX: Warning %f13 was declared previous at hotspot-rodinia-3.1.sm_30.ptx:37 skipping new declaration
GPGPU-Sim PTX: Warning %f14 was declared previous at hotspot-rodinia-3.1.sm_30.ptx:37 skipping new declaration
GPGPU-Sim PTX: Warning %f15 was declared previous at hotspot-rodinia-3.1.sm_30.ptx:37 skipping new declaration
GPGPU-Sim PTX: Warning %f16 was declared previous at hotspot-rodinia-3.1.sm_30.ptx:37 skipping new declaration
GPGPU-Sim PTX: Warning %f17 was declared previous at hotspot-rodinia-3.1.sm_30.ptx:37 skipping new declaration
GPGPU-Sim PTX: Warning %f18 was declared previous at hotspot-rodinia-3.1.sm_30.ptx:37 skipping new declaration
GPGPU-Sim PTX: Warning %f19 was declared previous at hotspot-rodinia-3.1.sm_30.ptx:37 skipping new declaration
GPGPU-Sim PTX: Warning %f20 was declared previous at hotspot-rodinia-3.1.sm_30.ptx:37 skipping new declaration
GPGPU-Sim PTX: Warning %f21 was declared previous at hotspot-rodinia-3.1.sm_30.ptx:37 skipping new declaration
GPGPU-Sim PTX: Warning %f22 was declared previous at hotspot-rodinia-3.1.sm_30.ptx:37 skipping new declaration
GPGPU-Sim PTX: Warning %f23 was declared previous at hotspot-rodinia-3.1.sm_30.ptx:37 skipping new declaration
GPGPU-Sim PTX: Warning %f24 was declared previous at hotspot-rodinia-3.1.sm_30.ptx:37 skipping new declaration
GPGPU-Sim PTX: Warning %f25 was declared previous at hotspot-rodinia-3.1.sm_30.ptx:37 skipping new declaration
GPGPU-Sim PTX: Warning %r0 was declared previous at hotspot-rodinia-3.1.sm_30.ptx:38 skipping new declaration
GPGPU-Sim PTX: Warning %r1 was declared previous at hotspot-rodinia-3.1.sm_30.ptx:38 skipping new declaration
GPGPU-Sim PTX: Warning %r2 was declared previous at hotspot-rodinia-3.1.sm_30.ptx:38 skipping new declaration
GPGPU-Sim PTX: Warning %r3 was declared previous at hotspot-rodinia-3.1.sm_30.ptx:38 skipping new declaration
GPGPU-Sim PTX: Warning %r4 was declared previous at hotspot-rodinia-3.1.sm_30.ptx:38 skipping new declaration
GPGPU-Sim PTX: Warning %r5 was declared previous at hotspot-rodinia-3.1.sm_30.ptx:38 skipping new declaration
GPGPU-Sim PTX: Warning %r6 was declared previous at hotspot-rodinia-3.1.sm_30.ptx:38 skipping new declaration
GPGPU-Sim PTX: Warning %r7 was declared previous at hotspot-rodinia-3.1.sm_30.ptx:38 skipping new declaration
GPGPU-Sim PTX: Warning %r8 was declared previous at hotspot-rodinia-3.1.sm_30.ptx:38 skipping new declaration
GPGPU-Sim PTX: Warning %r9 was declared previous at hotspot-rodinia-3.1.sm_30.ptx:38 skipping new declaration
GPGPU-Sim PTX: Warning %r10 was declared previous at hotspot-rodinia-3.1.sm_30.ptx:38 skipping new declaration
GPGPU-Sim PTX: Warning %r11 was declared previous at hotspot-rodinia-3.1.sm_30.ptx:38 skipping new declaration
GPGPU-Sim PTX: Warning %r12 was declared previous at hotspot-rodinia-3.1.sm_30.ptx:38 skipping new declaration
GPGPU-Sim PTX: Warning %r13 was declared previous at hotspot-rodinia-3.1.sm_30.ptx:38 skipping new declaration
GPGPU-Sim PTX: Warning %r14 was declared previous at hotspot-rodinia-3.1.sm_30.ptx:38 skipping new declaration
GPGPU-Sim PTX: Warning %r15 was declared previous at hotspot-rodinia-3.1.sm_30.ptx:38 skipping new declaration
GPGPU-Sim PTX: Warning %r16 was declared previous at hotspot-rodinia-3.1.sm_30.ptx:38 skipping new declaration
GPGPU-Sim PTX: Warning %r17 was declared previous at hotspot-rodinia-3.1.sm_30.ptx:38 skipping new declaration
GPGPU-Sim PTX: Warning %r18 was declared previous at hotspot-rodinia-3.1.sm_30.ptx:38 skipping new declaration
GPGPU-Sim PTX: Warning %r19 was declared previous at hotspot-rodinia-3.1.sm_30.ptx:38 skipping new declaration
GPGPU-Sim PTX: Warning %r20 was declared previous at hotspot-rodinia-3.1.sm_30.ptx:38 skipping new declaration
GPGPU-Sim PTX: Warning %r21 was declared previous at hotspot-rodinia-3.1.sm_30.ptx:38 skipping new declaration
GPGPU-Sim PTX: Warning %r22 was declared previous at hotspot-rodinia-3.1.sm_30.ptx:38 skipping new declaration
GPGPU-Sim PTX: Warning %r23 was declared previous at hotspot-rodinia-3.1.sm_30.ptx:38 skipping new declaration
GPGPU-Sim PTX: Warning %r24 was declared previous at hotspot-rodinia-3.1.sm_30.ptx:38 skipping new declaration
GPGPU-Sim PTX: Warning %r25 was declared previous at hotspot-rodinia-3.1.sm_30.ptx:38 skipping new declaration
GPGPU-Sim PTX: Warning %r26 was declared previous at hotspot-rodinia-3.1.sm_30.ptx:38 skipping new declaration
GPGPU-Sim PTX: Warning %r27 was declared previous at hotspot-rodinia-3.1.sm_30.ptx:38 skipping new declaration
GPGPU-Sim PTX: Warning %r28 was declared previous at hotspot-rodinia-3.1.sm_30.ptx:38 skipping new declaration
GPGPU-Sim PTX: Warning %r29 was declared previous at hotspot-rodinia-3.1.sm_30.ptx:38 skipping new declaration
GPGPU-Sim PTX: Warning %r30 was declared previous at hotspot-rodinia-3.1.sm_30.ptx:38 skipping new declaration
GPGPU-Sim PTX: Warning %r31 was declared previous at hotspot-rodinia-3.1.sm_30.ptx:38 skipping new declaration
GPGPU-Sim PTX: Warning %r32 was declared previous at hotspot-rodinia-3.1.sm_30.ptx:38 skipping new declaration
GPGPU-Sim PTX: Warning %r33 was declared previous at hotspot-rodinia-3.1.sm_30.ptx:38 skipping new declaration
GPGPU-Sim PTX: Warning %r34 was declared previous at hotspot-rodinia-3.1.sm_30.ptx:38 skipping new declaration
GPGPU-Sim PTX: Warning %r35 was declared previous at hotspot-rodinia-3.1.sm_30.ptx:38 skipping new declaration
GPGPU-Sim PTX: Warning %r36 was declared previous at hotspot-rodinia-3.1.sm_30.ptx:38 skipping new declaration
GPGPU-Sim PTX: Warning %r37 was declared previous at hotspot-rodinia-3.1.sm_30.ptx:38 skipping new declaration
GPGPU-Sim PTX: Warning %r38 was declared previous at hotspot-rodinia-3.1.sm_30.ptx:38 skipping new declaration
GPGPU-Sim PTX: Warning %r39 was declared previous at hotspot-rodinia-3.1.sm_30.ptx:38 skipping new declaration
GPGPU-Sim PTX: Warning %r40 was declared previous at hotspot-rodinia-3.1.sm_30.ptx:38 skipping new declaration
GPGPU-Sim PTX: Warning %r41 was declared previous at hotspot-rodinia-3.1.sm_30.ptx:38 skipping new declaration
GPGPU-Sim PTX: Warning %r42 was declared previous at hotspot-rodinia-3.1.sm_30.ptx:38 skipping new declaration
GPGPU-Sim PTX: Warning %r43 was declared previous at hotspot-rodinia-3.1.sm_30.ptx:38 skipping new declaration
GPGPU-Sim PTX: Warning %r44 was declared previous at hotspot-rodinia-3.1.sm_30.ptx:38 skipping new declaration
GPGPU-Sim PTX: Warning %r45 was declared previous at hotspot-rodinia-3.1.sm_30.ptx:38 skipping new declaration
GPGPU-Sim PTX: Warning %r46 was declared previous at hotspot-rodinia-3.1.sm_30.ptx:38 skipping new declaration
GPGPU-Sim PTX: Warning %r47 was declared previous at hotspot-rodinia-3.1.sm_30.ptx:38 skipping new declaration
GPGPU-Sim PTX: Warning %r48 was declared previous at hotspot-rodinia-3.1.sm_30.ptx:38 skipping new declaration
GPGPU-Sim PTX: Warning %r49 was declared previous at hotspot-rodinia-3.1.sm_30.ptx:38 skipping new declaration
GPGPU-Sim PTX: Warning %r50 was declared previous at hotspot-rodinia-3.1.sm_30.ptx:38 skipping new declaration
GPGPU-Sim PTX: Warning %r51 was declared previous at hotspot-rodinia-3.1.sm_30.ptx:38 skipping new declaration
GPGPU-Sim PTX: Warning %r52 was declared previous at hotspot-rodinia-3.1.sm_30.ptx:38 skipping new declaration
GPGPU-Sim PTX: Warning %r53 was declared previous at hotspot-rodinia-3.1.sm_30.ptx:38 skipping new declaration
GPGPU-Sim PTX: Warning %r54 was declared previous at hotspot-rodinia-3.1.sm_30.ptx:38 skipping new declaration
GPGPU-Sim PTX: Warning %r55 was declared previous at hotspot-rodinia-3.1.sm_30.ptx:38 skipping new declaration
GPGPU-Sim PTX: Warning %r56 was declared previous at hotspot-rodinia-3.1.sm_30.ptx:38 skipping new declaration
GPGPU-Sim PTX: Warning %r57 was declared previous at hotspot-rodinia-3.1.sm_30.ptx:38 skipping new declaration
GPGPU-Sim PTX: Warning %r58 was declared previous at hotspot-rodinia-3.1.sm_30.ptx:38 skipping new declaration
GPGPU-Sim PTX: Warning %r59 was declared previous at hotspot-rodinia-3.1.sm_30.ptx:38 skipping new declaration
GPGPU-Sim PTX: Warning %r60 was declared previous at hotspot-rodinia-3.1.sm_30.ptx:38 skipping new declaration
GPGPU-Sim PTX: Warning %r61 was declared previous at hotspot-rodinia-3.1.sm_30.ptx:38 skipping new declaration
GPGPU-Sim PTX: Warning %r62 was declared previous at hotspot-rodinia-3.1.sm_30.ptx:38 skipping new declaration
GPGPU-Sim PTX: Warning %r63 was declared previous at hotspot-rodinia-3.1.sm_30.ptx:38 skipping new declaration
GPGPU-Sim PTX: Warning %r64 was declared previous at hotspot-rodinia-3.1.sm_30.ptx:38 skipping new declaration
GPGPU-Sim PTX: Warning %r65 was declared previous at hotspot-rodinia-3.1.sm_30.ptx:38 skipping new declaration
GPGPU-Sim PTX: Warning %r66 was declared previous at hotspot-rodinia-3.1.sm_30.ptx:38 skipping new declaration
GPGPU-Sim PTX: Warning %r67 was declared previous at hotspot-rodinia-3.1.sm_30.ptx:38 skipping new declaration
GPGPU-Sim PTX: Warning %r68 was declared previous at hotspot-rodinia-3.1.sm_30.ptx:38 skipping new declaration
GPGPU-Sim PTX: Warning %r69 was declared previous at hotspot-rodinia-3.1.sm_30.ptx:38 skipping new declaration
GPGPU-Sim PTX: Warning %r70 was declared previous at hotspot-rodinia-3.1.sm_30.ptx:38 skipping new declaration
GPGPU-Sim PTX: Warning %r71 was declared previous at hotspot-rodinia-3.1.sm_30.ptx:38 skipping new declaration
GPGPU-Sim PTX: Warning %r72 was declared previous at hotspot-rodinia-3.1.sm_30.ptx:38 skipping new declaration
GPGPU-Sim PTX: Warning %r73 was declared previous at hotspot-rodinia-3.1.sm_30.ptx:38 skipping new declaration
GPGPU-Sim PTX: Warning %r74 was declared previous at hotspot-rodinia-3.1.sm_30.ptx:38 skipping new declaration
GPGPU-Sim PTX: Warning %r75 was declared previous at hotspot-rodinia-3.1.sm_30.ptx:38 skipping new declaration
GPGPU-Sim PTX: Warning %r76 was declared previous at hotspot-rodinia-3.1.sm_30.ptx:38 skipping new declaration
GPGPU-Sim PTX: Warning %r77 was declared previous at hotspot-rodinia-3.1.sm_30.ptx:38 skipping new declaration
GPGPU-Sim PTX: Warning %r78 was declared previous at hotspot-rodinia-3.1.sm_30.ptx:38 skipping new declaration
GPGPU-Sim PTX: Warning %r79 was declared previous at hotspot-rodinia-3.1.sm_30.ptx:38 skipping new declaration
GPGPU-Sim PTX: Warning %r80 was declared previous at hotspot-rodinia-3.1.sm_30.ptx:38 skipping new declaration
GPGPU-Sim PTX: Warning %r81 was declared previous at hotspot-rodinia-3.1.sm_30.ptx:38 skipping new declaration
GPGPU-Sim PTX: Warning %r82 was declared previous at hotspot-rodinia-3.1.sm_30.ptx:38 skipping new declaration
GPGPU-Sim PTX: Warning %r83 was declared previous at hotspot-rodinia-3.1.sm_30.ptx:38 skipping new declaration
GPGPU-Sim PTX: Warning %r84 was declared previous at hotspot-rodinia-3.1.sm_30.ptx:38 skipping new declaration
GPGPU-Sim PTX: Warning %fd0 was declared previous at hotspot-rodinia-3.1.sm_30.ptx:39 skipping new declaration
GPGPU-Sim PTX: Warning %fd1 was declared previous at hotspot-rodinia-3.1.sm_30.ptx:39 skipping new declaration
GPGPU-Sim PTX: Warning %fd2 was declared previous at hotspot-rodinia-3.1.sm_30.ptx:39 skipping new declaration
GPGPU-Sim PTX: Warning %fd3 was declared previous at hotspot-rodinia-3.1.sm_30.ptx:39 skipping new declaration
GPGPU-Sim PTX: Warning %fd4 was declared previous at hotspot-rodinia-3.1.sm_30.ptx:39 skipping new declaration
GPGPU-Sim PTX: Warning %fd5 was declared previous at hotspot-rodinia-3.1.sm_30.ptx:39 skipping new declaration
GPGPU-Sim PTX: Warning %fd6 was declared previous at hotspot-rodinia-3.1.sm_30.ptx:39 skipping new declaration
GPGPU-Sim PTX: Warning %fd7 was declared previous at hotspot-rodinia-3.1.sm_30.ptx:39 skipping new declaration
GPGPU-Sim PTX: Warning %fd8 was declared previous at hotspot-rodinia-3.1.sm_30.ptx:39 skipping new declaration
GPGPU-Sim PTX: Warning %fd9 was declared previous at hotspot-rodinia-3.1.sm_30.ptx:39 skipping new declaration
GPGPU-Sim PTX: Warning %fd10 was declared previous at hotspot-rodinia-3.1.sm_30.ptx:39 skipping new declaration
GPGPU-Sim PTX: Warning %fd11 was declared previous at hotspot-rodinia-3.1.sm_30.ptx:39 skipping new declaration
GPGPU-Sim PTX: Warning %fd12 was declared previous at hotspot-rodinia-3.1.sm_30.ptx:39 skipping new declaration
GPGPU-Sim PTX: Warning %fd13 was declared previous at hotspot-rodinia-3.1.sm_30.ptx:39 skipping new declaration
GPGPU-Sim PTX: Warning %fd14 was declared previous at hotspot-rodinia-3.1.sm_30.ptx:39 skipping new declaration
GPGPU-Sim PTX: Warning %fd15 was declared previous at hotspot-rodinia-3.1.sm_30.ptx:39 skipping new declaration
GPGPU-Sim PTX: Warning %rd0 was declared previous at hotspot-rodinia-3.1.sm_30.ptx:40 skipping new declaration
GPGPU-Sim PTX: Warning %rd1 was declared previous at hotspot-rodinia-3.1.sm_30.ptx:40 skipping new declaration
GPGPU-Sim PTX: Warning %rd2 was declared previous at hotspot-rodinia-3.1.sm_30.ptx:40 skipping new declaration
GPGPU-Sim PTX: Warning %rd3 was declared previous at hotspot-rodinia-3.1.sm_30.ptx:40 skipping new declaration
GPGPU-Sim PTX: Warning %rd4 was declared previous at hotspot-rodinia-3.1.sm_30.ptx:40 skipping new declaration
GPGPU-Sim PTX: Warning %rd5 was declared previous at hotspot-rodinia-3.1.sm_30.ptx:40 skipping new declaration
GPGPU-Sim PTX: Warning %rd6 was declared previous at hotspot-rodinia-3.1.sm_30.ptx:40 skipping new declaration
GPGPU-Sim PTX: Warning %rd7 was declared previous at hotspot-rodinia-3.1.sm_30.ptx:40 skipping new declaration
GPGPU-Sim PTX: Warning %rd8 was declared previous at hotspot-rodinia-3.1.sm_30.ptx:40 skipping new declaration
GPGPU-Sim PTX: Warning %rd9 was declared previous at hotspot-rodinia-3.1.sm_30.ptx:40 skipping new declaration
GPGPU-Sim PTX: Warning %rd10 was declared previous at hotspot-rodinia-3.1.sm_30.ptx:40 skipping new declaration
GPGPU-Sim PTX: Warning %rd11 was declared previous at hotspot-rodinia-3.1.sm_30.ptx:40 skipping new declaration
GPGPU-Sim PTX: Warning _ZZ14calculate_tempiPfS_S_iiiiffffffE12temp_on_cuda was declared previous at hotspot-rodinia-3.1.sm_30.ptx:42 skipping new declaration
GPGPU-Sim PTX: Warning _ZZ14calculate_tempiPfS_S_iiiiffffffE13power_on_cuda was declared previous at hotspot-rodinia-3.1.sm_30.ptx:44 skipping new declaration
GPGPU-Sim PTX: Warning _ZZ14calculate_tempiPfS_S_iiiiffffffE6temp_t was declared previous at hotspot-rodinia-3.1.sm_30.ptx:46 skipping new declaration
GPGPU-Sim PTX: instruction assembly for function '_Z14calculate_tempiPfS_S_iiiiffffff'...   done.
GPGPU-Sim PTX: finished parsing EMBEDDED .ptx file hotspot-rodinia-3.3.sm_50.ptx
GPGPU-Sim PTX: Parsing hotspot-rodinia-3.4.sm_60.ptx
GPGPU-Sim PTX: Warning %p0 was declared previous at hotspot-rodinia-3.1.sm_30.ptx:35 skipping new declaration
GPGPU-Sim PTX: Warning %p1 was declared previous at hotspot-rodinia-3.1.sm_30.ptx:35 skipping new declaration
GPGPU-Sim PTX: Warning %p2 was declared previous at hotspot-rodinia-3.1.sm_30.ptx:35 skipping new declaration
GPGPU-Sim PTX: Warning %p3 was declared previous at hotspot-rodinia-3.1.sm_30.ptx:35 skipping new declaration
GPGPU-Sim PTX: Warning %p4 was declared previous at hotspot-rodinia-3.1.sm_30.ptx:35 skipping new declaration
GPGPU-Sim PTX: Warning %p5 was declared previous at hotspot-rodinia-3.1.sm_30.ptx:35 skipping new declaration
GPGPU-Sim PTX: Warning %p6 was declared previous at hotspot-rodinia-3.1.sm_30.ptx:35 skipping new declaration
GPGPU-Sim PTX: Warning %p7 was declared previous at hotspot-rodinia-3.1.sm_30.ptx:35 skipping new declaration
GPGPU-Sim PTX: Warning %p8 was declared previous at hotspot-rodinia-3.1.sm_30.ptx:35 skipping new declaration
GPGPU-Sim PTX: Warning %p9 was declared previous at hotspot-rodinia-3.1.sm_30.ptx:35 skipping new declaration
GPGPU-Sim PTX: Warning %p10 was declared previous at hotspot-rodinia-3.1.sm_30.ptx:35 skipping new declaration
GPGPU-Sim PTX: Warning %p11 was declared previous at hotspot-rodinia-3.1.sm_30.ptx:35 skipping new declaration
GPGPU-Sim PTX: Warning %p12 was declared previous at hotspot-rodinia-3.1.sm_30.ptx:35 skipping new declaration
GPGPU-Sim PTX: Warning %p13 was declared previous at hotspot-rodinia-3.1.sm_30.ptx:35 skipping new declaration
GPGPU-Sim PTX: Warning %p14 was declared previous at hotspot-rodinia-3.1.sm_30.ptx:35 skipping new declaration
GPGPU-Sim PTX: Warning %p15 was declared previous at hotspot-rodinia-3.1.sm_30.ptx:35 skipping new declaration
GPGPU-Sim PTX: Warning %p16 was declared previous at hotspot-rodinia-3.1.sm_30.ptx:35 skipping new declaration
GPGPU-Sim PTX: Warning %p17 was declared previous at hotspot-rodinia-3.1.sm_30.ptx:35 skipping new declaration
GPGPU-Sim PTX: Warning %p18 was declared previous at hotspot-rodinia-3.1.sm_30.ptx:35 skipping new declaration
GPGPU-Sim PTX: Warning %p19 was declared previous at hotspot-rodinia-3.1.sm_30.ptx:35 skipping new declaration
GPGPU-Sim PTX: Warning %p20 was declared previous at hotspot-rodinia-3.1.sm_30.ptx:35 skipping new declaration
GPGPU-Sim PTX: Warning %p21 was declared previous at hotspot-rodinia-3.1.sm_30.ptx:35 skipping new declaration
GPGPU-Sim PTX: Warning %p22 was declared previous at hotspot-rodinia-3.1.sm_30.ptx:35 skipping new declaration
GPGPU-Sim PTX: Warning %p23 was declared previous at hotspot-rodinia-3.1.sm_30.ptx:35 skipping new declaration
GPGPU-Sim PTX: Warning %p24 was declared previous at hotspot-rodinia-3.1.sm_30.ptx:35 skipping new declaration
GPGPU-Sim PTX: Warning %p25 was declared previous at hotspot-rodinia-3.1.sm_30.ptx:35 skipping new declaration
GPGPU-Sim PTX: Warning %p26 was declared previous at hotspot-rodinia-3.1.sm_30.ptx:35 skipping new declaration
GPGPU-Sim PTX: Warning %p27 was declared previous at hotspot-rodinia-3.1.sm_30.ptx:35 skipping new declaration
GPGPU-Sim PTX: Warning %p28 was declared previous at hotspot-rodinia-3.1.sm_30.ptx:35 skipping new declaration
GPGPU-Sim PTX: Warning %p29 was declared previous at hotspot-rodinia-3.1.sm_30.ptx:35 skipping new declaration
GPGPU-Sim PTX: Warning %p30 was declared previous at hotspot-rodinia-3.1.sm_30.ptx:35 skipping new declaration
GPGPU-Sim PTX: Warning %rs0 was declared previous at hotspot-rodinia-3.1.sm_30.ptx:36 skipping new declaration
GPGPU-Sim PTX: Warning %rs1 was declared previous at hotspot-rodinia-3.1.sm_30.ptx:36 skipping new declaration
GPGPU-Sim PTX: Warning %rs2 was declared previous at hotspot-rodinia-3.1.sm_30.ptx:36 skipping new declaration
GPGPU-Sim PTX: Warning %rs3 was declared previous at hotspot-rodinia-3.1.sm_30.ptx:36 skipping new declaration
GPGPU-Sim PTX: Warning %rs4 was declared previous at hotspot-rodinia-3.1.sm_30.ptx:36 skipping new declaration
GPGPU-Sim PTX: Warning %rs5 was declared previous at hotspot-rodinia-3.1.sm_30.ptx:36 skipping new declaration
GPGPU-Sim PTX: Warning %rs6 was declared previous at hotspot-rodinia-3.1.sm_30.ptx:36 skipping new declaration
GPGPU-Sim PTX: Warning %rs7 was declared previous at hotspot-rodinia-3.1.sm_30.ptx:36 skipping new declaration
GPGPU-Sim PTX: Warning %rs8 was declared previous at hotspot-rodinia-3.1.sm_30.ptx:36 skipping new declaration
GPGPU-Sim PTX: Warning %rs9 was declared previous at hotspot-rodinia-3.1.sm_30.ptx:36 skipping new declaration
GPGPU-Sim PTX: Warning %f0 was declared previous at hotspot-rodinia-3.1.sm_30.ptx:37 skipping new declaration
GPGPU-Sim PTX: Warning %f1 was declared previous at hotspot-rodinia-3.1.sm_30.ptx:37 skipping new declaration
GPGPU-Sim PTX: Warning %f2 was declared previous at hotspot-rodinia-3.1.sm_30.ptx:37 skipping new declaration
GPGPU-Sim PTX: Warning %f3 was declared previous at hotspot-rodinia-3.1.sm_30.ptx:37 skipping new declaration
GPGPU-Sim PTX: Warning %f4 was declared previous at hotspot-rodinia-3.1.sm_30.ptx:37 skipping new declaration
GPGPU-Sim PTX: Warning %f5 was declared previous at hotspot-rodinia-3.1.sm_30.ptx:37 skipping new declaration
GPGPU-Sim PTX: Warning %f6 was declared previous at hotspot-rodinia-3.1.sm_30.ptx:37 skipping new declaration
GPGPU-Sim PTX: Warning %f7 was declared previous at hotspot-rodinia-3.1.sm_30.ptx:37 skipping new declaration
GPGPU-Sim PTX: Warning %f8 was declared previous at hotspot-rodinia-3.1.sm_30.ptx:37 skipping new declaration
GPGPU-Sim PTX: Warning %f9 was declared previous at hotspot-rodinia-3.1.sm_30.ptx:37 skipping new declaration
GPGPU-Sim PTX: Warning %f10 was declared previous at hotspot-rodinia-3.1.sm_30.ptx:37 skipping new declaration
GPGPU-Sim PTX: Warning %f11 was declared previous at hotspot-rodinia-3.1.sm_30.ptx:37 skipping new declaration
GPGPU-Sim PTX: Warning %f12 was declared previous at hotspot-rodinia-3.1.sm_30.ptx:37 skipping new declaration
GPGPU-Sim PTX: Warning %f13 was declared previous at hotspot-rodinia-3.1.sm_30.ptx:37 skipping new declaration
GPGPU-Sim PTX: Warning %f14 was declared previous at hotspot-rodinia-3.1.sm_30.ptx:37 skipping new declaration
GPGPU-Sim PTX: Warning %f15 was declared previous at hotspot-rodinia-3.1.sm_30.ptx:37 skipping new declaration
GPGPU-Sim PTX: Warning %f16 was declared previous at hotspot-rodinia-3.1.sm_30.ptx:37 skipping new declaration
GPGPU-Sim PTX: Warning %f17 was declared previous at hotspot-rodinia-3.1.sm_30.ptx:37 skipping new declaration
GPGPU-Sim PTX: Warning %f18 was declared previous at hotspot-rodinia-3.1.sm_30.ptx:37 skipping new declaration
GPGPU-Sim PTX: Warning %f19 was declared previous at hotspot-rodinia-3.1.sm_30.ptx:37 skipping new declaration
GPGPU-Sim PTX: Warning %f20 was declared previous at hotspot-rodinia-3.1.sm_30.ptx:37 skipping new declaration
GPGPU-Sim PTX: Warning %f21 was declared previous at hotspot-rodinia-3.1.sm_30.ptx:37 skipping new declaration
GPGPU-Sim PTX: Warning %f22 was declared previous at hotspot-rodinia-3.1.sm_30.ptx:37 skipping new declaration
GPGPU-Sim PTX: Warning %f23 was declared previous at hotspot-rodinia-3.1.sm_30.ptx:37 skipping new declaration
GPGPU-Sim PTX: Warning %f24 was declared previous at hotspot-rodinia-3.1.sm_30.ptx:37 skipping new declaration
GPGPU-Sim PTX: Warning %f25 was declared previous at hotspot-rodinia-3.1.sm_30.ptx:37 skipping new declaration
GPGPU-Sim PTX: Warning %r0 was declared previous at hotspot-rodinia-3.1.sm_30.ptx:38 skipping new declaration
GPGPU-Sim PTX: Warning %r1 was declared previous at hotspot-rodinia-3.1.sm_30.ptx:38 skipping new declaration
GPGPU-Sim PTX: Warning %r2 was declared previous at hotspot-rodinia-3.1.sm_30.ptx:38 skipping new declaration
GPGPU-Sim PTX: Warning %r3 was declared previous at hotspot-rodinia-3.1.sm_30.ptx:38 skipping new declaration
GPGPU-Sim PTX: Warning %r4 was declared previous at hotspot-rodinia-3.1.sm_30.ptx:38 skipping new declaration
GPGPU-Sim PTX: Warning %r5 was declared previous at hotspot-rodinia-3.1.sm_30.ptx:38 skipping new declaration
GPGPU-Sim PTX: Warning %r6 was declared previous at hotspot-rodinia-3.1.sm_30.ptx:38 skipping new declaration
GPGPU-Sim PTX: Warning %r7 was declared previous at hotspot-rodinia-3.1.sm_30.ptx:38 skipping new declaration
GPGPU-Sim PTX: Warning %r8 was declared previous at hotspot-rodinia-3.1.sm_30.ptx:38 skipping new declaration
GPGPU-Sim PTX: Warning %r9 was declared previous at hotspot-rodinia-3.1.sm_30.ptx:38 skipping new declaration
GPGPU-Sim PTX: Warning %r10 was declared previous at hotspot-rodinia-3.1.sm_30.ptx:38 skipping new declaration
GPGPU-Sim PTX: Warning %r11 was declared previous at hotspot-rodinia-3.1.sm_30.ptx:38 skipping new declaration
GPGPU-Sim PTX: Warning %r12 was declared previous at hotspot-rodinia-3.1.sm_30.ptx:38 skipping new declaration
GPGPU-Sim PTX: Warning %r13 was declared previous at hotspot-rodinia-3.1.sm_30.ptx:38 skipping new declaration
GPGPU-Sim PTX: Warning %r14 was declared previous at hotspot-rodinia-3.1.sm_30.ptx:38 skipping new declaration
GPGPU-Sim PTX: Warning %r15 was declared previous at hotspot-rodinia-3.1.sm_30.ptx:38 skipping new declaration
GPGPU-Sim PTX: Warning %r16 was declared previous at hotspot-rodinia-3.1.sm_30.ptx:38 skipping new declaration
GPGPU-Sim PTX: Warning %r17 was declared previous at hotspot-rodinia-3.1.sm_30.ptx:38 skipping new declaration
GPGPU-Sim PTX: Warning %r18 was declared previous at hotspot-rodinia-3.1.sm_30.ptx:38 skipping new declaration
GPGPU-Sim PTX: Warning %r19 was declared previous at hotspot-rodinia-3.1.sm_30.ptx:38 skipping new declaration
GPGPU-Sim PTX: Warning %r20 was declared previous at hotspot-rodinia-3.1.sm_30.ptx:38 skipping new declaration
GPGPU-Sim PTX: Warning %r21 was declared previous at hotspot-rodinia-3.1.sm_30.ptx:38 skipping new declaration
GPGPU-Sim PTX: Warning %r22 was declared previous at hotspot-rodinia-3.1.sm_30.ptx:38 skipping new declaration
GPGPU-Sim PTX: Warning %r23 was declared previous at hotspot-rodinia-3.1.sm_30.ptx:38 skipping new declaration
GPGPU-Sim PTX: Warning %r24 was declared previous at hotspot-rodinia-3.1.sm_30.ptx:38 skipping new declaration
GPGPU-Sim PTX: Warning %r25 was declared previous at hotspot-rodinia-3.1.sm_30.ptx:38 skipping new declaration
GPGPU-Sim PTX: Warning %r26 was declared previous at hotspot-rodinia-3.1.sm_30.ptx:38 skipping new declaration
GPGPU-Sim PTX: Warning %r27 was declared previous at hotspot-rodinia-3.1.sm_30.ptx:38 skipping new declaration
GPGPU-Sim PTX: Warning %r28 was declared previous at hotspot-rodinia-3.1.sm_30.ptx:38 skipping new declaration
GPGPU-Sim PTX: Warning %r29 was declared previous at hotspot-rodinia-3.1.sm_30.ptx:38 skipping new declaration
GPGPU-Sim PTX: Warning %r30 was declared previous at hotspot-rodinia-3.1.sm_30.ptx:38 skipping new declaration
GPGPU-Sim PTX: Warning %r31 was declared previous at hotspot-rodinia-3.1.sm_30.ptx:38 skipping new declaration
GPGPU-Sim PTX: Warning %r32 was declared previous at hotspot-rodinia-3.1.sm_30.ptx:38 skipping new declaration
GPGPU-Sim PTX: Warning %r33 was declared previous at hotspot-rodinia-3.1.sm_30.ptx:38 skipping new declaration
GPGPU-Sim PTX: Warning %r34 was declared previous at hotspot-rodinia-3.1.sm_30.ptx:38 skipping new declaration
GPGPU-Sim PTX: Warning %r35 was declared previous at hotspot-rodinia-3.1.sm_30.ptx:38 skipping new declaration
GPGPU-Sim PTX: Warning %r36 was declared previous at hotspot-rodinia-3.1.sm_30.ptx:38 skipping new declaration
GPGPU-Sim PTX: Warning %r37 was declared previous at hotspot-rodinia-3.1.sm_30.ptx:38 skipping new declaration
GPGPU-Sim PTX: Warning %r38 was declared previous at hotspot-rodinia-3.1.sm_30.ptx:38 skipping new declaration
GPGPU-Sim PTX: Warning %r39 was declared previous at hotspot-rodinia-3.1.sm_30.ptx:38 skipping new declaration
GPGPU-Sim PTX: Warning %r40 was declared previous at hotspot-rodinia-3.1.sm_30.ptx:38 skipping new declaration
GPGPU-Sim PTX: Warning %r41 was declared previous at hotspot-rodinia-3.1.sm_30.ptx:38 skipping new declaration
GPGPU-Sim PTX: Warning %r42 was declared previous at hotspot-rodinia-3.1.sm_30.ptx:38 skipping new declaration
[...]
dram[3]:        462       477       404       498       349       391       346       404       343       327       332       356       330       326       333       340
dram[4]:        415       486       320       445       353       358       367       353       336       341       329       340       328       329       318       325
dram[5]:        463       448       333       403       355       347       372       346       326       326       335       343       317       341       336       339
Memory Partition 0: 
Cache L2_bank_000:
MSHR contents

Cache L2_bank_001:
MSHR contents

In Dram Latency Queue (total = 0): 
DRAM[0]: 16 bks, busW=4 BL=8 CL=12, tRRD=6 tCCD=2, tRCD=12 tRAS=28 tRP=12 tRC=40
n_cmd=166429 n_nop=150888 n_act=1304 n_pre=1288 n_ref_event=11408848 n_req=11954 n_rd=10932 n_rd_L2_A=0 n_write=0 n_wr_bk=2044 bw_util=0.1559
n_activity=80370 dram_eff=0.3229
bk0: 652a 162019i bk1: 640a 162366i bk2: 640a 162457i bk3: 640a 162602i bk4: 680a 162416i bk5: 680a 162452i bk6: 768a 161725i bk7: 768a 161939i bk8: 768a 162219i bk9: 768a 162480i bk10: 688a 162687i bk11: 680a 162414i bk12: 640a 162541i bk13: 640a 162485i bk14: 640a 162339i bk15: 640a 162794i 

------------------------------------------------------------------------

Row_Buffer_Locality = 0.891250
Row_Buffer_Locality_read = 0.937980
Row_Buffer_Locality_write = 0.391389
Bank_Level_Parallism = 1.325579
Bank_Level_Parallism_Col = 0.000000
Bank_Level_Parallism_Ready = 1.056361
write_to_read_ratio_blp_rw_average = 0.000000
GrpLevelPara = 0.000000 

BW Util details:
bwutil = 0.155934 
total_CMD = 166429 
util_bw = 25952 
Wasted_Col = 19434 
Wasted_Row = 14476 
Idle = 106567 

BW Util Bottlenecks: 
RCDc_limit = 6861 
RCDWRc_limit = 3591 
WTRc_limit = 1947 
RTWc_limit = 4001 
CCDLc_limit = 6726 
rwq = 0 
CCDLc_limit_alone = 6503 
WTRc_limit_alone = 1901 
RTWc_limit_alone = 3824 

Commands details: 
total_CMD = 166429 
n_nop = 150888 
Read = 10932 
Write = 0 
L2_Alloc = 0 
L2_WB = 2044 
n_act = 1304 
n_pre = 1288 
n_ref = 11408848 
n_req = 11954 
total_req = 12976 

Dual Bus Interface Util: 
issued_total_row = 2592 
issued_total_col = 12976 
Row_Bus_Util =  0.015574 
CoL_Bus_Util = 0.077967 
Either_Row_CoL_Bus_Util = 0.093379 
Issued_on_Two_Bus_Simul_Util = 0.000162 
issued_two_Eff = 0.001737 
queue_avg = 0.939728 


dram_util_bins: 0 0 0 0 0 0 0 0 0 0
dram_eff_bins: 0 0 0 0 0 0 0 0 0 0
mrqq: max=35 avg=0.939728
Memory Partition 1: 
Cache L2_bank_002:
MSHR contents

Cache L2_bank_003:
MSHR contents

In Dram Latency Queue (total = 1): 
Ready @ 126110 -   mf: uid=2004705, sid4294967295:w4294967295, part=1, addr=0xc01b4f80, store, size=128, L2_WRBK  status = IN_PARTITION_DRAM_LATENCY_QUEUE (126010), 
DRAM[1]: 16 bks, busW=4 BL=8 CL=12, tRRD=6 tCCD=2, tRCD=12 tRAS=28 tRP=12 tRC=40
n_cmd=166429 n_nop=150927 n_act=1292 n_pre=1276 n_ref_event=0 n_req=11947 n_rd=10928 n_rd_L2_A=0 n_write=0 n_wr_bk=2038 bw_util=0.1558
n_activity=79707 dram_eff=0.3253
bk0: 648a 162524i bk1: 640a 162286i bk2: 640a 162168i bk3: 640a 162521i bk4: 680a 162265i bk5: 680a 162455i bk6: 768a 162142i bk7: 768a 162427i bk8: 768a 161986i bk9: 768a 162427i bk10: 688a 162473i bk11: 680a 162296i bk12: 640a 162081i bk13: 640a 162867i bk14: 640a 162497i bk15: 640a 162468i 

------------------------------------------------------------------------

Row_Buffer_Locality = 0.892191
Row_Buffer_Locality_read = 0.938507
Row_Buffer_Locality_write = 0.395486
Bank_Level_Parallism = 1.333204
Bank_Level_Parallism_Col = 1.233606
Bank_Level_Parallism_Ready = 1.056827
write_to_read_ratio_blp_rw_average = 0.259880
GrpLevelPara = 1.200944 

BW Util details:
bwutil = 0.155814 
total_CMD = 166429 
util_bw = 25932 
Wasted_Col = 19261 
Wasted_Row = 14472 
Idle = 106764 

BW Util Bottlenecks: 
RCDc_limit = 6638 
RCDWRc_limit = 3612 
WTRc_limit = 2336 
RTWc_limit = 3868 
CCDLc_limit = 6812 
rwq = 0 
CCDLc_limit_alone = 6572 
WTRc_limit_alone = 2275 
RTWc_limit_alone = 3689 

Commands details: 
total_CMD = 166429 
n_nop = 150927 
Read = 10928 
Write = 0 
L2_Alloc = 0 
L2_WB = 2038 
n_act = 1292 
n_pre = 1276 
n_ref = 0 
n_req = 11947 
total_req = 12966 

Dual Bus Interface Util: 
issued_total_row = 2568 
issued_total_col = 12966 
Row_Bus_Util =  0.015430 
CoL_Bus_Util = 0.077907 
Either_Row_CoL_Bus_Util = 0.093145 
Issued_on_Two_Bus_Simul_Util = 0.000192 
issued_two_Eff = 0.002064 
queue_avg = 0.901123 


dram_util_bins: 0 0 0 0 0 0 0 0 0 0
dram_eff_bins: 0 0 0 0 0 0 0 0 0 0
mrqq: max=30 avg=0.901123
Memory Partition 2: 
Cache L2_bank_004:
MSHR contents

Cache L2_bank_005:
MSHR contents

In Dram Latency Queue (total = 0): 
DRAM[2]: 16 bks, busW=4 BL=8 CL=12, tRRD=6 tCCD=2, tRCD=12 tRAS=28 tRP=12 tRC=40
n_cmd=166429 n_nop=150818 n_act=1341 n_pre=1325 n_ref_event=0 n_req=11958 n_rd=10936 n_rd_L2_A=0 n_write=0 n_wr_bk=2044 bw_util=0.156
n_activity=80674 dram_eff=0.3218
bk0: 648a 162055i bk1: 640a 162458i bk2: 640a 162205i bk3: 640a 162583i bk4: 680a 162080i bk5: 688a 162658i bk6: 768a 161794i bk7: 768a 162265i bk8: 768a 162300i bk9: 768a 162243i bk10: 688a 161953i bk11: 680a 162657i bk12: 640a 162416i bk13: 640a 162574i bk14: 640a 162328i bk15: 640a 162643i 

------------------------------------------------------------------------

Row_Buffer_Locality = 0.888192
Row_Buffer_Locality_read = 0.936357
Row_Buffer_Locality_write = 0.372798
Bank_Level_Parallism = 1.320707
Bank_Level_Parallism_Col = 1.214631
Bank_Level_Parallism_Ready = 1.054437
write_to_read_ratio_blp_rw_average = 0.262153
GrpLevelPara = 1.189545 

BW Util details:
bwutil = 0.155982 
total_CMD = 166429 
util_bw = 25960 
Wasted_Col = 19647 
Wasted_Row = 15052 
Idle = 105770 

BW Util Bottlenecks: 
RCDc_limit = 7040 
RCDWRc_limit = 3704 
WTRc_limit = 2052 
RTWc_limit = 3907 
CCDLc_limit = 6753 
rwq = 0 
CCDLc_limit_alone = 6549 
WTRc_limit_alone = 1986 
RTWc_limit_alone = 3769 

Commands details: 
total_CMD = 166429 
n_nop = 150818 
Read = 10936 
Write = 0 
L2_Alloc = 0 
L2_WB = 2044 
n_act = 1341 
n_pre = 1325 
n_ref = 0 
n_req = 11958 
total_req = 12980 

Dual Bus Interface Util: 
issued_total_row = 2666 
issued_total_col = 12980 
Row_Bus_Util =  0.016019 
CoL_Bus_Util = 0.077991 
Either_Row_CoL_Bus_Util = 0.093800 
Issued_on_Two_Bus_Simul_Util = 0.000210 
issued_two_Eff = 0.002242 
queue_avg = 0.960524 


dram_util_bins: 0 0 0 0 0 0 0 0 0 0
dram_eff_bins: 0 0 0 0 0 0 0 0 0 0
mrqq: max=26 avg=0.960524
Memory Partition 3: 
Cache L2_bank_006:
MSHR contents

Cache L2_bank_007:
MSHR contents

In Dram Latency Queue (total = 0): 
DRAM[3]: 16 bks, busW=4 BL=8 CL=12, tRRD=6 tCCD=2, tRCD=12 tRAS=28 tRP=12 tRC=40
n_cmd=166429 n_nop=150859 n_act=1324 n_pre=1308 n_ref_event=0 n_req=11955 n_rd=10936 n_rd_L2_A=0 n_write=0 n_wr_bk=2038 bw_util=0.1559
n_activity=80227 dram_eff=0.3234
bk0: 648a 162144i bk1: 640a 162559i bk2: 640a 161937i bk3: 640a 162233i bk4: 680a 162162i bk5: 688a 162142i bk6: 768a 162309i bk7: 768a 162156i bk8: 768a 161990i bk9: 768a 162096i bk10: 688a 162045i bk11: 680a 162520i bk12: 640a 162706i bk13: 640a 162501i bk14: 640a 162136i bk15: 640a 162814i 

------------------------------------------------------------------------

Row_Buffer_Locality = 0.889586
Row_Buffer_Locality_read = 0.937088
Row_Buffer_Locality_write = 0.379784
Bank_Level_Parallism = 1.354790
Bank_Level_Parallism_Col = 0.000000
Bank_Level_Parallism_Ready = 1.061557
write_to_read_ratio_blp_rw_average = 0.000000
GrpLevelPara = 0.000000 

BW Util details:
bwutil = 0.155910 
total_CMD = 166429 
util_bw = 25948 
Wasted_Col = 19640 
Wasted_Row = 14309 
Idle = 106532 

BW Util Bottlenecks: 
RCDc_limit = 6886 
RCDWRc_limit = 3538 
WTRc_limit = 2126 
RTWc_limit = 4322 
CCDLc_limit = 6739 
rwq = 0 
CCDLc_limit_alone = 6500 
WTRc_limit_alone = 2084 
RTWc_limit_alone = 4125 

Commands details: 
total_CMD = 166429 
n_nop = 150859 
Read = 10936 
Write = 0 
L2_Alloc = 0 
L2_WB = 2038 
n_act = 1324 
n_pre = 1308 
n_ref = 0 
n_req = 11955 
total_req = 12974 

Dual Bus Interface Util: 
issued_total_row = 2632 
issued_total_col = 12974 
Row_Bus_Util =  0.015815 
CoL_Bus_Util = 0.077955 
Either_Row_CoL_Bus_Util = 0.093553 
Issued_on_Two_Bus_Simul_Util = 0.000216 
issued_two_Eff = 0.002312 
queue_avg = 0.927224 


dram_util_bins: 0 0 0 0 0 0 0 0 0 0
dram_eff_bins: 0 0 0 0 0 0 0 0 0 0
mrqq: max=39 avg=0.927224
Memory Partition 4: 
Cache L2_bank_008:
MSHR contents

Cache L2_bank_009:
MSHR contents

In Dram Latency Queue (total = 0): 
DRAM[4]: 16 bks, busW=4 BL=8 CL=12, tRRD=6 tCCD=2, tRCD=12 tRAS=28 tRP=12 tRC=40
n_cmd=166429 n_nop=150958 n_act=1266 n_pre=1250 n_ref_event=0 n_req=11950 n_rd=10928 n_rd_L2_A=0 n_write=0 n_wr_bk=2044 bw_util=0.1559
n_activity=80673 dram_eff=0.3216
bk0: 644a 162671i bk1: 644a 161871i bk2: 640a 162633i bk3: 640a 162245i bk4: 680a 162583i bk5: 688a 162208i bk6: 768a 162054i bk7: 768a 161659i bk8: 768a 162653i bk9: 768a 162483i bk10: 680a 162958i bk11: 680a 162313i bk12: 640a 162819i bk13: 640a 162743i bk14: 640a 162896i bk15: 640a 162356i 

------------------------------------------------------------------------

Row_Buffer_Locality = 0.894310
Row_Buffer_Locality_read = 0.939605
Row_Buffer_Locality_write = 0.409980
Bank_Level_Parallism = 1.298974
Bank_Level_Parallism_Col = 1.213854
Bank_Level_Parallism_Ready = 1.055278
write_to_read_ratio_blp_rw_average = 0.265971
GrpLevelPara = 1.185675 

BW Util details:
bwutil = 0.155886 
total_CMD = 166429 
util_bw = 25944 
Wasted_Col = 19477 
Wasted_Row = 14744 
Idle = 106264 

BW Util Bottlenecks: 
RCDc_limit = 6653 
RCDWRc_limit = 3566 
WTRc_limit = 2061 
RTWc_limit = 3774 
CCDLc_limit = 6810 
rwq = 0 
CCDLc_limit_alone = 6571 
WTRc_limit_alone = 2028 
RTWc_limit_alone = 3568 

Commands details: 
total_CMD = 166429 
n_nop = 150958 
Read = 10928 
Write = 0 
L2_Alloc = 0 
L2_WB = 2044 
n_act = 1266 
n_pre = 1250 
n_ref = 0 
n_req = 11950 
total_req = 12972 

Dual Bus Interface Util: 
issued_total_row = 2516 
issued_total_col = 12972 
Row_Bus_Util =  0.015118 
CoL_Bus_Util = 0.077943 
Either_Row_CoL_Bus_Util = 0.092959 
Issued_on_Two_Bus_Simul_Util = 0.000102 
issued_two_Eff = 0.001099 
queue_avg = 0.948152 


dram_util_bins: 0 0 0 0 0 0 0 0 0 0
dram_eff_bins: 0 0 0 0 0 0 0 0 0 0
mrqq: max=30 avg=0.948152
Memory Partition 5: 
Cache L2_bank_010:
MSHR contents

Cache L2_bank_011:
MSHR contents

In Dram Latency Queue (total = 1): 
Ready @ 126112 -   mf: uid=2004706, sid4294967295:w4294967295, part=5, addr=0xc01b4780, store, size=128, L2_WRBK  status = IN_PARTITION_DRAM_LATENCY_QUEUE (126012), 
DRAM[5]: 16 bks, busW=4 BL=8 CL=12, tRRD=6 tCCD=2, tRCD=12 tRAS=28 tRP=12 tRC=40
n_cmd=166429 n_nop=150907 n_act=1300 n_pre=1284 n_ref_event=4562280503665652019 n_req=11946 n_rd=10928 n_rd_L2_A=0 n_write=0 n_wr_bk=2036 bw_util=0.1558
n_activity=80513 dram_eff=0.322
bk0: 640a 162546i bk1: 648a 162266i bk2: 640a 162643i bk3: 640a 162264i bk4: 680a 162580i bk5: 688a 162496i bk6: 768a 161827i bk7: 768a 162286i bk8: 768a 162293i bk9: 768a 162060i bk10: 680a 162331i bk11: 680a 162293i bk12: 640a 162693i bk13: 640a 162810i bk14: 640a 162303i bk15: 640a 162343i 

------------------------------------------------------------------------

Row_Buffer_Locality = 0.891428
Row_Buffer_Locality_read = 0.938141
Row_Buffer_Locality_write = 0.389980
Bank_Level_Parallism = 1.312924
Bank_Level_Parallism_Col = 2.474220
Bank_Level_Parallism_Ready = 1.045636
write_to_read_ratio_blp_rw_average = 0.263263
GrpLevelPara = 1.175956 

BW Util details:
bwutil = 0.155790 
total_CMD = 166429 
util_bw = 25928 
Wasted_Col = 19675 
Wasted_Row = 14833 
Idle = 105993 

BW Util Bottlenecks: 
RCDc_limit = 6764 
RCDWRc_limit = 3666 
WTRc_limit = 2288 
RTWc_limit = 3982 
CCDLc_limit = 6885 
rwq = 0 
CCDLc_limit_alone = 6634 
WTRc_limit_alone = 2226 
RTWc_limit_alone = 3793 

Commands details: 
total_CMD = 166429 
n_nop = 150907 
Read = 10928 
Write = 0 
L2_Alloc = 0 
L2_WB = 2036 
n_act = 1300 
n_pre = 1284 
n_ref = 4562280503665652019 
n_req = 11946 
total_req = 12964 

Dual Bus Interface Util: 
issued_total_row = 2584 
issued_total_col = 12964 
Row_Bus_Util =  0.015526 
CoL_Bus_Util = 0.077895 
Either_Row_CoL_Bus_Util = 0.093265 
Issued_on_Two_Bus_Simul_Util = 0.000156 
issued_two_Eff = 0.001675 
queue_avg = 0.919341 


dram_util_bins: 0 0 0 0 0 0 0 0 0 0
dram_eff_bins: 0 0 0 0 0 0 0 0 0 0
mrqq: max=29 avg=0.919341

========= L2 cache stats =========
L2_cache_bank[0]: Access = 17624, Miss = 9057, Miss_rate = 0.514, Pending_hits = 4227, Reservation_fails = 429
L2_cache_bank[1]: Access = 18034, Miss = 9218, Miss_rate = 0.511, Pending_hits = 4427, Reservation_fails = 0
L2_cache_bank[2]: Access = 17988, Miss = 9052, Miss_rate = 0.503, Pending_hits = 4348, Reservation_fails = 206
L2_cache_bank[3]: Access = 17863, Miss = 9047, Miss_rate = 0.506, Pending_hits = 4344, Reservation_fails = 0
L2_cache_bank[4]: Access = 18159, Miss = 9223, Miss_rate = 0.508, Pending_hits = 4421, Reservation_fails = 210
L2_cache_bank[5]: Access = 18072, Miss = 9044, Miss_rate = 0.500, Pending_hits = 4220, Reservation_fails = 2
L2_cache_bank[6]: Access = 17989, Miss = 9053, Miss_rate = 0.503, Pending_hits = 4361, Reservation_fails = 116
L2_cache_bank[7]: Access = 18541, Miss = 9045, Miss_rate = 0.488, Pending_hits = 4348, Reservation_fails = 0
L2_cache_bank[8]: Access = 17456, Miss = 9051, Miss_rate = 0.519, Pending_hits = 4255, Reservation_fails = 98
L2_cache_bank[9]: Access = 18771, Miss = 9219, Miss_rate = 0.491, Pending_hits = 4426, Reservation_fails = 111
L2_cache_bank[10]: Access = 17863, Miss = 9047, Miss_rate = 0.506, Pending_hits = 4358, Reservation_fails = 1
L2_cache_bank[11]: Access = 18660, Miss = 9052, Miss_rate = 0.485, Pending_hits = 4364, Reservation_fails = 206
L2_total_cache_accesses = 217020
L2_total_cache_misses = 109108
L2_total_cache_miss_rate = 0.5028
L2_total_cache_pending_hits = 52099
L2_total_cache_reservation_fails = 1379
L2_total_cache_breakdown:
	L2_cache_stats_breakdown[GLOBAL_ACC_R][HIT] = 55233
	L2_cache_stats_breakdown[GLOBAL_ACC_R][HIT_RESERVED] = 51951
	L2_cache_stats_breakdown[GLOBAL_ACC_R][MISS] = 16384
	L2_cache_stats_breakdown[GLOBAL_ACC_R][RESERVATION_FAIL] = 10
	L2_cache_stats_breakdown[GLOBAL_ACC_R][SECTOR_MISS] = 49152
	L2_cache_stats_breakdown[LOCAL_ACC_R][HIT] = 0
	L2_cache_stats_breakdown[LOCAL_ACC_R][HIT_RESERVED] = 0
	L2_cache_stats_breakdown[LOCAL_ACC_R][MISS] = 0
	L2_cache_stats_breakdown[LOCAL_ACC_R][RESERVATION_FAIL] = 0
	L2_cache_stats_breakdown[LOCAL_ACC_R][SECTOR_MISS] = 0
	L2_cache_stats_breakdown[CONST_ACC_R][HIT] = 44
	L2_cache_stats_breakdown[CONST_ACC_R][HIT_RESERVED] = 12
	L2_cache_stats_breakdown[CONST_ACC_R][MISS] = 1
	L2_cache_stats_breakdown[CONST_ACC_R][RESERVATION_FAIL] = 210
	L2_cache_stats_breakdown[CONST_ACC_R][SECTOR_MISS] = 3
	L2_cache_stats_breakdown[TEXTURE_ACC_R][HIT] = 0
	L2_cache_stats_breakdown[TEXTURE_ACC_R][HIT_RESERVED] = 0
	L2_cache_stats_breakdown[TEXTURE_ACC_R][MISS] = 0
	L2_cache_stats_breakdown[TEXTURE_ACC_R][RESERVATION_FAIL] = 0
	L2_cache_stats_breakdown[TEXTURE_ACC_R][SECTOR_MISS] = 0
	L2_cache_stats_breakdown[GLOBAL_ACC_W][HIT] = 0
	L2_cache_stats_breakdown[GLOBAL_ACC_W][HIT_RESERVED] = 0
	L2_cache_stats_breakdown[GLOBAL_ACC_W][MISS] = 8192
	L2_cache_stats_breakdown[GLOBAL_ACC_W][RESERVATION_FAIL] = 0
	L2_cache_stats_breakdown[GLOBAL_ACC_W][SECTOR_MISS] = 35328
	L2_cache_stats_breakdown[LOCAL_ACC_W][HIT] = 0
	L2_cache_stats_breakdown[LOCAL_ACC_W][HIT_RESERVED] = 0
	L2_cache_stats_breakdown[LOCAL_ACC_W][MISS] = 0
	L2_cache_stats_breakdown[LOCAL_ACC_W][RESERVATION_FAIL] = 0
	L2_cache_stats_breakdown[LOCAL_ACC_W][SECTOR_MISS] = 0
	L2_cache_stats_breakdown[L1_WRBK_ACC][HIT] = 0
	L2_cache_stats_breakdown[L1_WRBK_ACC][HIT_RESERVED] = 0
	L2_cache_stats_breakdown[L1_WRBK_ACC][MISS] = 0
	L2_cache_stats_breakdown[L1_WRBK_ACC][RESERVATION_FAIL] = 0
	L2_cache_stats_breakdown[L1_WRBK_ACC][SECTOR_MISS] = 0
	L2_cache_stats_breakdown[L2_WRBK_ACC][HIT] = 0
	L2_cache_stats_breakdown[L2_WRBK_ACC][HIT_RESERVED] = 0
	L2_cache_stats_breakdown[L2_WRBK_ACC][MISS] = 0
	L2_cache_stats_breakdown[L2_WRBK_ACC][RESERVATION_FAIL] = 0
	L2_cache_stats_breakdown[L2_WRBK_ACC][SECTOR_MISS] = 0
	L2_cache_stats_breakdown[INST_ACC_R][HIT] = 536
	L2_cache_stats_breakdown[INST_ACC_R][HIT_RESERVED] = 136
	L2_cache_stats_breakdown[INST_ACC_R][MISS] = 12
	L2_cache_stats_breakdown[INST_ACC_R][RESERVATION_FAIL] = 1159
	L2_cache_stats_breakdown[INST_ACC_R][SECTOR_MISS] = 36
	L2_cache_stats_breakdown[L1_WR_ALLOC_R][HIT] = 0
	L2_cache_stats_breakdown[L1_WR_ALLOC_R][HIT_RESERVED] = 0
	L2_cache_stats_breakdown[L1_WR_ALLOC_R][MISS] = 0
	L2_cache_stats_breakdown[L1_WR_ALLOC_R][RESERVATION_FAIL] = 0
	L2_cache_stats_breakdown[L1_WR_ALLOC_R][SECTOR_MISS] = 0
	L2_cache_stats_breakdown[L2_WR_ALLOC_R][HIT] = 0
	L2_cache_stats_breakdown[L2_WR_ALLOC_R][HIT_RESERVED] = 0
	L2_cache_stats_breakdown[L2_WR_ALLOC_R][MISS] = 0
	L2_cache_stats_breakdown[L2_WR_ALLOC_R][RESERVATION_FAIL] = 0
	L2_cache_stats_breakdown[L2_WR_ALLOC_R][SECTOR_MISS] = 0
	L2_cache_stats_breakdown[GLOBAL_ACC_R][TOTAL_ACCESS] = 172720
	L2_cache_stats_breakdown[CONST_ACC_R][TOTAL_ACCESS] = 60
	L2_cache_stats_breakdown[GLOBAL_ACC_W][TOTAL_ACCESS] = 43520
	L2_cache_stats_breakdown[INST_ACC_R][TOTAL_ACCESS] = 720
L2_total_cache_reservation_fail_breakdown:
	L2_cache_stats_fail_breakdown[GLOBAL_ACC_R][MISS_QUEUE_FULL] = 10
	L2_cache_stats_fail_breakdown[CONST_ACC_R][MSHR_MERGE_ENRTY_FAIL] = 210
	L2_cache_stats_fail_breakdown[INST_ACC_R][MSHR_MERGE_ENRTY_FAIL] = 1159
L2_cache_data_port_util = 0.038
L2_cache_fill_port_util = 0.043

icnt_total_pkts_mem_to_simt=217020
icnt_total_pkts_simt_to_mem=216450
LD_mem_lat_dist  0 0 0 0 0 0 0 0 0 0 0 0 0 0 0 0 0 0 0 0 0 0 0 0 0 0 0
ST_mem_lat_dist  0 0 0 0 0 0 0 0 0 0 0 0 0 0 0 0 0 0 0 0 0 0 0 0 0 0 0
----------------------------Interconnect-DETAILS--------------------------------
Class 0:
Packet latency average = 7.12114
	minimum = 5
	maximum = 186
Network latency average = 7.09792
	minimum = 5
	maximum = 173
Slowest packet = 1993
Flit latency average = 7.09792
	minimum = 5
	maximum = 173
Slowest flit = 2738
Fragmentation average = 0
	minimum = 0
	maximum = 0
Injected packet rate average = 0.127332
	minimum = 0.113148 (at node 4)
	maximum = 0.148878 (at node 24)
Accepted packet rate average = 0.127332
	minimum = 0.113449 (at node 4)
	maximum = 0.148521 (at node 24)
Injected flit rate average = 0.127332
	minimum = 0.113148 (at node 4)
	maximum = 0.148878 (at node 24)
Accepted flit rate average= 0.127332
	minimum = 0.113449 (at node 4)
	maximum = 0.148521 (at node 24)
Injected packet length average = 1
Accepted packet length average = 1
Total in-flight flits = 0 (0 measured)
====== Overall Traffic Statistics ======
====== Traffic class 0 ======
Packet latency average = 7.12114 (1 samples)
	minimum = 5 (1 samples)
	maximum = 186 (1 samples)
Network latency average = 7.09792 (1 samples)
	minimum = 5 (1 samples)
	maximum = 173 (1 samples)
Flit latency average = 7.09792 (1 samples)
	minimum = 5 (1 samples)
	maximum = 173 (1 samples)
Fragmentation average = 0 (1 samples)
	minimum = 0 (1 samples)
	maximum = 0 (1 samples)
Injected packet rate average = 0.127332 (1 samples)
	minimum = 0.113148 (1 samples)
	maximum = 0.148878 (1 samples)
Accepted packet rate average = 0.127332 (1 samples)
	minimum = 0.113449 (1 samples)
	maximum = 0.148521 (1 samples)
Injected flit rate average = 0.127332 (1 samples)
	minimum = 0.113148 (1 samples)
	maximum = 0.148878 (1 samples)
Accepted flit rate average = 0.127332 (1 samples)
	minimum = 0.113449 (1 samples)
	maximum = 0.148521 (1 samples)
Injected packet size average = 1 (1 samples)
Accepted packet size average = 1 (1 samples)
Hops average = 1 (1 samples)
----------------------------END-of-Interconnect-DETAILS-------------------------


gpgpu_simulation_time = 0 days, 0 hrs, 4 min, 4 sec (244 sec)
gpgpu_simulation_rate = 365656 (inst/sec)
gpgpu_simulation_rate = 516 (cycle/sec)
gpgpu_silicon_slowdown = 1356589x
Ending simulation
GPGPU-Sim: *** exit detected ***
